   Input file: /Users/kezhang/Desktop/projects/geos/geos_github/agent_workspace/inputs/q.in.txt
  Output file: /Users/kezhang/Desktop/projects/geos/geos_github/agent_workspace/inputs/result.out
Database file: /Users/kezhang/Desktop/projects/geos/phreeqc-3.8.6-17100/database/phreeqc.dat

------------------
Reading data base.
------------------

	SOLUTION_MASTER_SPECIES
	SOLUTION_SPECIES
	PHASES
	GAS_BINARY_PARAMETERS
	EXCHANGE_MASTER_SPECIES
	EXCHANGE_SPECIES
	SURFACE_MASTER_SPECIES
	SURFACE_SPECIES
	MEAN_GAMMAS
	RATES
	END
------------------------------------
Reading input data for simulation 1.
------------------------------------

	TITLE Q1-Q5
	SOLUTION 1 Gypsum+Anhydrite pure water pH 7, 100C
	    temp 100
	    pH 7 charge
	    units mol/kgw
	    water 1
	EQUILIBRIUM_PHASES 1
	    Gypsum     0 1
	    Anhydrite  0 1
	SELECTED_OUTPUT 1
	    file q1_sel.txt
	    reset false
	    ph true
	    molalities Ca+2 CaSO4 CaHSO4+ CaOH+
	END
-----
TITLE
-----

 Q1-Q5

-------------------------------------------
Beginning of initial solution calculations.
-------------------------------------------

Initial solution 1.	Gypsum+Anhydrite pure water pH 7, 100C

-----------------------------Solution composition------------------------------

	Elements           Molality       Moles

	Pure water     

----------------------------Description of solution----------------------------

                                       pH  =   6.119      Charge balance
                                       pe  =   4.000    
      Specific Conductance (µS/cm, 100°C)  = 0
                          Density (g/cm³)  =   0.95835
                               Volume (L)  =   1.04346
                        Viscosity (mPa s)  =   0.28158
                        Activity of water  =   1.000
                 Ionic strength (mol/kgw)  =   7.610e-07
                       Mass of water (kg)  =   1.000e+00
                 Total alkalinity (eq/kg)  =  -1.160e-16
                         Temperature (°C)  = 100.00
                  Electrical balance (eq)  =   1.160e-16
 Percent error, 100*(Cat-|An|)/(Cat+|An|)  =   0.00
                               Iterations  =   5
                                  Total H  = 1.110124e+02
                                  Total O  = 5.550622e+01

----------------------------Distribution of species----------------------------

                                               Log       Log       Log    mole V
   Species          Molality    Activity  Molality  Activity     Gamma   cm³/mol

   H+              7.610e-07   7.601e-07    -6.119    -6.119    -0.001      0.00
   OH-             7.610e-07   7.601e-07    -6.119    -6.119    -0.001     -5.96
   H2O             5.551e+01   1.000e+00     1.744    -0.000     0.000     18.80
H(0)          4.504e-24
   H2              2.252e-24   2.252e-24   -23.647   -23.647     0.000     28.57
O(0)          3.593e-26
   O2              1.796e-26   1.796e-26   -25.746   -25.746     0.000     33.90

------------------------------Saturation indices-------------------------------

  Phase               SI** log IAP   log K(373 K,   1 atm)

  H2(g)           -20.55    -23.65   -3.10  H2
  H2O(g)           -0.00     -0.00    0.00  H2O
  O2(g)           -22.63    -25.75   -3.11  O2

**For a gas, SI = log10(fugacity). Fugacity = pressure * phi / 1 atm.
  For ideal gases, phi = 1.

-----------------------------------------
Beginning of batch-reaction calculations.
-----------------------------------------

Reaction step 1.

Using solution 1.	Gypsum+Anhydrite pure water pH 7, 100C
Using pure phase assemblage 1.	

-------------------------------Phase assemblage--------------------------------

                                                      Moles in assemblage
Phase               SI  log IAP  log K(T, P)   Initial       Final       Delta

Anhydrite         0.00    -5.26     -5.26    1.000e+00   1.994e+00   9.941e-01
Gypsum           -0.41    -5.26     -4.85    1.000e+00           0  -1.000e+00

-----------------------------Solution composition------------------------------

	Elements           Molality       Moles

	Ca                5.712e-03   5.917e-03
	S                 5.712e-03   5.917e-03

----------------------------Description of solution----------------------------

                                       pH  =   6.333      Charge balance
                                       pe  =   6.607      Adjusted to redox equilibrium
      Specific Conductance (µS/cm, 100°C)  = 3099
                          Density (g/cm³)  =   0.95909
                               Volume (L)  =   1.08106
                        Viscosity (mPa s)  =   0.28322
                        Activity of water  =   1.000
                 Ionic strength (mol/kgw)  =   1.677e-02
                       Mass of water (kg)  =   1.036e+00
                 Total alkalinity (eq/kg)  =  -1.150e-16
                         Temperature (°C)  = 100.00
                  Electrical balance (eq)  =   2.544e-14
 Percent error, 100*(Cat-|An|)/(Cat+|An|)  =   0.00
                               Iterations  =  16
                                  Total H  = 1.150124e+02
                                  Total O  = 5.752989e+01

----------------------------Distribution of species----------------------------

                                               Log       Log       Log    mole V
   Species          Molality    Activity  Molality  Activity     Gamma   cm³/mol

   OH-             1.453e-06   1.245e-06    -5.838    -5.905    -0.067     -5.68
   H+              5.274e-07   4.641e-07    -6.278    -6.333    -0.056      0.00
   H2O             5.551e+01   9.998e-01     1.744    -0.000     0.000     18.80
Ca            5.712e-03
   Ca+2            4.193e-03   2.349e-03    -2.378    -2.629    -0.252    -19.17
   CaSO4           1.519e-03   1.525e-03    -2.818    -2.817     0.002      8.86
   CaHSO4+         2.545e-08   2.187e-08    -7.594    -7.660    -0.066     (0)  
   CaOH+           9.771e-10   8.398e-10    -9.010    -9.076    -0.066     (0)  
H(0)          1.020e-29
   H2              5.102e-30   5.122e-30   -29.292   -29.291     0.002     28.57
O(0)          6.916e-15
   O2              3.458e-15   3.471e-15   -14.461   -14.460     0.002     33.90
S(-2)         0.000e+00
   H2S             0.000e+00   0.000e+00   -87.516   -87.514     0.002     46.17
   HS-             0.000e+00   0.000e+00   -87.634   -87.702    -0.067     20.02
   S-2             0.000e+00   0.000e+00   -92.249   -92.504    -0.254     (0)  
   (H2S)2          0.000e+00   0.000e+00  -175.864  -175.862     0.002     24.22
S(6)          5.712e-03
   SO4-2           4.192e-03   2.330e-03    -2.378    -2.633    -0.255     16.38
   CaSO4           1.519e-03   1.525e-03    -2.818    -2.817     0.002      8.86
   HSO4-           9.013e-07   7.746e-07    -6.045    -6.111    -0.066     40.93
   CaHSO4+         2.545e-08   2.187e-08    -7.594    -7.660    -0.066     (0)  

------------------------------Saturation indices-------------------------------

  Phase               SI** log IAP   log K(373 K,   1 atm)

  Anhydrite         0.00     -5.26   -5.26  CaSO4
  Gypsum           -0.41     -5.26   -4.85  CaSO4:2H2O
  H2(g)           -26.19    -29.29   -3.10  H2
  H2O(g)           -0.01     -0.00    0.00  H2O
  H2S(g)          -86.03    -94.04   -8.00  H2S
  O2(g)           -11.34    -14.46   -3.11  O2
  Sulfur          -65.12    -61.63    3.48  S

**For a gas, SI = log10(fugacity). Fugacity = pressure * phi / 1 atm.
  For ideal gases, phi = 1.

------------------
End of simulation.
------------------

------------------------------------
Reading input data for simulation 2.
------------------------------------

	SOLUTION 2 CO2 3 atm + Cu2 0.5m + Fe3 0.25m, 100C
	    temp 100
	    pH 7 charge
	    units mol/kgw
	    Cu 0.5
	    Fe 0.25
	    water 1
	GAS_PHASE 2
	    fixed_pressure true
	    pressure 1
	    CO2(g) 3
	SELECTED_OUTPUT 2
	    file q2_sel.txt
	    reset false
	    ph true
	    si Siderite Goethite Hematite Magnetite Fayalite
	END
WARNING: Did not find phase, Magnetite.
WARNING: Did not find phase, Fayalite.
-------------------------------------------
Beginning of initial solution calculations.
-------------------------------------------

Initial solution 2.	CO2 3 atm + Cu2 0.5m + Fe3 0.25m, 100C

-----------------------------Solution composition------------------------------

	Elements           Molality       Moles

	Cu                5.000e-01   5.000e-01
	Fe                2.500e-01   2.500e-01

----------------------------Description of solution----------------------------

                                       pH  =   9.986      Charge balance
                                       pe  =   4.000    
      Specific Conductance (µS/cm, 100°C)  = 2675
                          Density (g/cm³)  =   1.03074
                               Volume (L)  =   1.04342
                        Viscosity (mPa s)  =   0.28211
                        Activity of water  =   0.989
                 Ionic strength (mol/kgw)  =   3.865e-01
                       Mass of water (kg)  =   1.000e+00
                 Total alkalinity (eq/kg)  =   1.250e+00
                         Temperature (°C)  = 100.00
                  Electrical balance (eq)  =   1.014e-11
 Percent error, 100*(Cat-|An|)/(Cat+|An|)  =   0.00
                               Iterations  =   8
                                  Total H  = 1.127624e+02
                                  Total O  = 5.725622e+01

----------------------------Distribution of species----------------------------

                                               Log       Log       Log    mole V
   Species          Molality    Activity  Molality  Activity     Gamma   cm³/mol

   OH-             9.048e-03   5.530e-03    -2.043    -2.257    -0.214     -4.29
   H+              1.388e-10   1.033e-10    -9.858    -9.986    -0.128      0.00
   H2O             5.551e+01   9.893e-01     1.744    -0.005     0.000     18.80
Cu(1)         2.224e-08
   Cu+             2.224e-08   1.270e-08    -7.653    -7.896    -0.244     (0)  
Cu(2)         5.000e-01
   Cu(OH)2         2.421e-01   2.646e-01    -0.616    -0.577     0.039     (0)  
   Cu2(OH)2+2      1.288e-01   2.939e-02    -0.890    -1.532    -0.642     (0)  
   Cu(OH)3-        2.208e-04   1.526e-04    -3.656    -3.816    -0.160     (0)  
   CuOH+           2.104e-05   1.323e-05    -4.677    -4.878    -0.202     (0)  
   Cu(OH)4-2       1.278e-06   2.915e-07    -5.894    -6.535    -0.642     (0)  
   Cu+2            6.253e-07   1.382e-07    -6.204    -6.859    -0.655    -27.42
Fe(2)         4.906e-13
   Fe(OH)3-        2.396e-13   1.580e-13   -12.620   -12.801    -0.181     (0)  
   Fe(OH)2         2.257e-13   2.467e-13   -12.646   -12.608     0.039     (0)  
   FeOH+           2.502e-14   1.650e-14   -13.602   -13.782    -0.181     (0)  
   Fe+2            2.801e-16   6.192e-17   -15.553   -16.208    -0.655    -18.31
Fe(3)         2.500e-01
   Fe(OH)4-        2.484e-01   1.666e-01    -0.605    -0.778    -0.174     (0)  
   Fe(OH)3         1.570e-03   1.716e-03    -2.804    -2.765     0.039     (0)  
   Fe(OH)2+        1.523e-07   1.021e-07    -6.817    -6.991    -0.174     (0)  
   FeOH+2          1.755e-14   3.320e-15   -13.756   -14.479    -0.723     (0)  
   Fe+3            2.238e-23   1.577e-24   -22.650   -23.802    -1.152     (0)  
   Fe2(OH)2+4      9.209e-27   2.493e-29   -26.036   -28.603    -2.567     (0)  
   Fe3(OH)4+5      2.169e-32   2.111e-36   -31.664   -35.675    -4.012     (0)  
H(0)          7.618e-32
   H2              3.809e-32   4.164e-32   -31.419   -31.381     0.039     28.57
O(0)          9.409e-11
   O2              4.704e-11   5.142e-11   -10.327   -10.289     0.039     33.90

------------------------------Saturation indices-------------------------------

  Phase               SI** log IAP   log K(373 K,   1 atm)

  Fe(OH)3(a)        1.25      6.14    4.89  Fe(OH)3
  Goethite          9.28      6.15   -3.13  FeOOH
  H2(g)           -28.28    -31.38   -3.10  H2
  H2O(g)           -0.01     -0.00    0.00  H2O
  Hematite         20.85     12.30   -8.55  Fe2O3
  O2(g)            -7.17    -10.29   -3.11  O2

**For a gas, SI = log10(fugacity). Fugacity = pressure * phi / 1 atm.
  For ideal gases, phi = 1.

-----------------------------------------
Beginning of batch-reaction calculations.
-----------------------------------------

Reaction step 1.

Using solution 2.	CO2 3 atm + Cu2 0.5m + Fe3 0.25m, 100C
Using gas phase 2.	

----------------Fixed-pressure gas phase 2 dissolved completely----------------

-----------------------------Solution composition------------------------------

	Elements           Molality       Moles

	C                 1.245e-01   1.247e-01
	Cu                4.990e-01   5.000e-01
	Fe                2.495e-01   2.500e-01

----------------------------Description of solution----------------------------

                                       pH  =   9.381      Charge balance
                                       pe  =   4.733      Adjusted to redox equilibrium
      Specific Conductance (µS/cm, 100°C)  = 4685
                          Density (g/cm³)  =   1.03358
                               Volume (L)  =   1.04587
                        Viscosity (mPa s)  =   0.29586
                        Activity of water  =   0.990
                 Ionic strength (mol/kgw)  =   6.194e-01
                       Mass of water (kg)  =   1.002e+00
                 Total alkalinity (eq/kg)  =   1.248e+00
                       Total CO2 (mol/kg)  =   1.245e-01
                         Temperature (°C)  = 100.00
                  Electrical balance (eq)  =   1.546e-11
 Percent error, 100*(Cat-|An|)/(Cat+|An|)  =   0.00
                               Iterations  =  10
                                  Total H  = 1.127624e+02
                                  Total O  = 5.750563e+01

----------------------------Distribution of species----------------------------

                                               Log       Log       Log    mole V
   Species          Molality    Activity  Molality  Activity     Gamma   cm³/mol

   OH-             2.405e-03   1.374e-03    -2.619    -2.862    -0.243     -3.70
   H+              5.717e-10   4.162e-10    -9.243    -9.381    -0.138      0.00
   H2O             5.551e+01   9.900e-01     1.744    -0.004     0.000     18.80
C(-4)         0.000e+00
   CH4             0.000e+00   0.000e+00  -102.446  -102.385     0.062     41.06
C(4)          1.245e-01
   Cu(CO3)2-2      4.773e-02   1.169e-02    -1.321    -1.932    -0.611     (0)  
   HCO3-           1.461e-02   9.383e-03    -1.835    -2.028    -0.192     25.70
   CO3-2           9.278e-03   1.577e-03    -2.033    -2.802    -0.770     -3.46
   CuCO3           5.104e-03   5.886e-03    -2.292    -2.230     0.062     (0)  
   CO2             9.587e-06   1.053e-05    -5.018    -4.977     0.041     38.89
   CuHCO3+         4.646e-06   3.268e-06    -5.333    -5.486    -0.153     (0)  
   (CO2)2          8.930e-12   1.030e-11   -11.049   -10.987     0.062     77.78
   FeCO3           9.250e-14   1.067e-13   -13.034   -12.972     0.062     (0)  
   FeHCO3+         3.761e-15   2.646e-15   -14.425   -14.577    -0.153     (0)  
Cu(1)         2.259e-08
   Cu+             2.259e-08   1.180e-08    -7.646    -7.928    -0.282     (0)  
Cu(2)         4.990e-01
   Cu2(OH)2+2      1.874e-01   4.589e-02    -0.727    -1.338    -0.611     (0)  
   Cu(OH)2         7.125e-02   8.218e-02    -1.147    -1.085     0.062     (0)  
   Cu(CO3)2-2      4.773e-02   1.169e-02    -1.321    -1.932    -0.611     (0)  
   CuCO3           5.104e-03   5.886e-03    -2.292    -2.230     0.062     (0)  
   CuOH+           2.791e-05   1.653e-05    -4.554    -4.782    -0.227     (0)  
   Cu(OH)3-        1.675e-05   1.178e-05    -4.776    -4.929    -0.153     (0)  
   CuHCO3+         4.646e-06   3.268e-06    -5.333    -5.486    -0.153     (0)  
   Cu+2            3.665e-06   6.950e-07    -5.436    -6.158    -0.722    -27.06
   Cu(OH)4-2       2.283e-08   5.591e-09    -7.641    -8.253    -0.611     (0)  
Fe(2)         1.185e-12
   Fe(OH)2         6.016e-13   6.939e-13   -12.221   -12.159     0.062     (0)  
   FeOH+           2.968e-13   1.868e-13   -12.527   -12.729    -0.201     (0)  
   Fe(OH)3-        1.756e-13   1.105e-13   -12.756   -12.957    -0.201     (0)  
   FeCO3           9.250e-14   1.067e-13   -13.034   -12.972     0.062     (0)  
   Fe+2            1.487e-14   2.820e-15   -13.828   -14.550    -0.722    -18.03
   FeHCO3+         3.761e-15   2.646e-15   -14.425   -14.577    -0.153     (0)  
Fe(3)         2.495e-01
   Fe(OH)4-        2.439e-01   1.566e-01    -0.613    -0.805    -0.192     (0)  
   Fe(OH)3         5.629e-03   6.492e-03    -2.250    -2.188     0.062     (0)  
   Fe(OH)2+        2.421e-06   1.555e-06    -5.616    -5.808    -0.192     (0)  
   FeOH+2          1.298e-12   2.033e-13   -11.887   -12.692    -0.805     (0)  
   Fe+3            6.776e-21   3.887e-22   -20.169   -21.410    -1.241     (0)  
   Fe2(OH)2+4      2.602e-23   9.353e-26   -22.585   -25.029    -2.444     (0)  
   Fe3(OH)4+5      7.953e-28   1.206e-31   -27.099   -30.919    -3.819     (0)  
H(0)          3.998e-32
   H2              1.999e-32   2.305e-32   -31.699   -31.637     0.062     28.57
O(0)          2.913e-10
   O2              1.457e-10   1.680e-10    -9.837    -9.775     0.062     33.90

------------------------------Saturation indices-------------------------------

  Phase               SI** log IAP   log K(373 K,   1 atm)

  CH4(g)          -99.38   -102.38   -3.00  CH4
  CO2(g)           -3.00     -4.98   -1.98  CO2
  Fe(OH)3(a)        1.83      6.72    4.89  Fe(OH)3
  Goethite          9.86      6.72   -3.13  FeOOH
  H2(g)           -28.54    -31.64   -3.10  H2
  H2O(g)           -0.01     -0.00    0.00  H2O
  Hematite         22.00     13.45   -8.55  Fe2O3
  O2(g)            -6.66     -9.77   -3.11  O2
  Siderite         -6.10    -17.35  -11.26  FeCO3

**For a gas, SI = log10(fugacity). Fugacity = pressure * phi / 1 atm.
  For ideal gases, phi = 1.

------------------
End of simulation.
------------------

------------------------------------
Reading input data for simulation 3.
------------------------------------

	SELECTED_OUTPUT 3
	    file q2_cu_species.txt
	    reset false
	    molalities Cu+2 CuCO3 CuHCO3+ CuOH+ Cu(OH)2 Cu(OH)3- Cu(OH)4-2 CuSO4 CuCl+ CuCl2 CuCl3- CuCl4-2
	END
------------------
End of simulation.
------------------

------------------------------------
Reading input data for simulation 4.
------------------------------------

----------------------------------
End of Run after 0.011648 Seconds.
----------------------------------

