   Input file: /Users/kezhang/Desktop/projects/geos/geos_github/work_space/dataset_q_00098/o2_equil.in
  Output file: /Users/kezhang/Desktop/projects/geos/geos_github/work_space/dataset_q_00098/result.out
Database file: /Users/kezhang/Desktop/projects/geos/phreeqc-3.8.6-17100/database/phreeqc.dat

------------------
Reading data base.
------------------

	SOLUTION_MASTER_SPECIES
	SOLUTION_SPECIES
	PHASES
	GAS_BINARY_PARAMETERS
	EXCHANGE_MASTER_SPECIES
	EXCHANGE_SPECIES
	SURFACE_MASTER_SPECIES
	SURFACE_SPECIES
	MEAN_GAMMAS
	RATES
	END
------------------------------------
Reading input data for simulation 1.
------------------------------------

	SOLUTION 1 Pure water
	    temp 25
	    pH 7 charge
	    units mol/kgw
	    water 1
	EQUILIBRIUM_PHASES 1
	    O2(g)   -0.7  10
	END
-------------------------------------------
Beginning of initial solution calculations.
-------------------------------------------

Initial solution 1.	Pure water

-----------------------------Solution composition------------------------------

	Elements           Molality       Moles

	Pure water     

----------------------------Description of solution----------------------------

                                       pH  =   6.997      Charge balance
                                       pe  =   4.000    
      Specific Conductance (µS/cm,  25°C)  = 0
                          Density (g/cm³)  =   0.99704
                               Volume (L)  =   1.00297
                        Viscosity (mPa s)  =   0.89002
                        Activity of water  =   1.000
                 Ionic strength (mol/kgw)  =   1.006e-07
                       Mass of water (kg)  =   1.000e+00
                 Total alkalinity (eq/kg)  =   3.040e-17
                         Temperature (°C)  =  25.00
                  Electrical balance (eq)  =  -3.040e-17
 Percent error, 100*(Cat-|An|)/(Cat+|An|)  =  -0.00
                               Iterations  =   2
                                  Total H  = 1.110124e+02
                                  Total O  = 5.550622e+01

----------------------------Distribution of species----------------------------

                                               Log       Log       Log    mole V
   Species          Molality    Activity  Molality  Activity     Gamma   cm³/mol

   OH-             1.006e-07   1.006e-07    -6.997    -6.997    -0.000     -4.14
   H+              1.006e-07   1.006e-07    -6.997    -6.997    -0.000      0.00
   H2O             5.551e+01   1.000e+00     1.744    -0.000     0.000     18.07
H(0)          1.433e-25
   H2              7.166e-26   7.166e-26   -25.145   -25.145     0.000     28.61
O(0)          0.000e+00
   O2              0.000e+00   0.000e+00   -42.090   -42.090     0.000     30.40

------------------------------Saturation indices-------------------------------

  Phase               SI** log IAP   log K(298 K,   1 atm)

  H2(g)           -22.04    -25.14   -3.10  H2
  H2O(g)           -1.50     -0.00    1.50  H2O
  O2(g)           -39.20    -42.09   -2.89  O2

**For a gas, SI = log10(fugacity). Fugacity = pressure * phi / 1 atm.
  For ideal gases, phi = 1.

-----------------------------------------
Beginning of batch-reaction calculations.
-----------------------------------------

Reaction step 1.

Using solution 1.	Pure water
Using pure phase assemblage 1.	

-------------------------------Phase assemblage--------------------------------

                                                      Moles in assemblage
Phase               SI  log IAP  log K(T, P)   Initial       Final       Delta

O2(g)            -0.70    -3.59     -2.89    1.000e+01   1.000e+01  -2.556e-04

-----------------------------Solution composition------------------------------

	Elements           Molality       Moles

	Pure water     

----------------------------Description of solution----------------------------

                                       pH  =   6.997      Charge balance
                                       pe  =  13.625      Adjusted to redox equilibrium
      Specific Conductance (µS/cm,  25°C)  = 0
                          Density (g/cm³)  =   0.99704
                               Volume (L)  =   1.00297
                        Viscosity (mPa s)  =   0.89002
                        Activity of water  =   1.000
                 Ionic strength (mol/kgw)  =   1.006e-07
                       Mass of water (kg)  =   1.000e+00
                 Total alkalinity (eq/kg)  =   3.040e-17
                         Temperature (°C)  =  25.00
                  Electrical balance (eq)  =  -3.040e-17
 Percent error, 100*(Cat-|An|)/(Cat+|An|)  =  -0.00
                               Iterations  =  12
                                  Total H  = 1.110124e+02
                                  Total O  = 5.550673e+01

----------------------------Distribution of species----------------------------

                                               Log       Log       Log    mole V
   Species          Molality    Activity  Molality  Activity     Gamma   cm³/mol

   OH-             1.006e-07   1.006e-07    -6.997    -6.997    -0.000     -4.14
   H+              1.006e-07   1.006e-07    -6.997    -6.997    -0.000      0.00
   H2O             5.551e+01   1.000e+00     1.744    -0.000     0.000     18.07
H(0)          0.000e+00
   H2              0.000e+00   0.000e+00   -44.394   -44.394     0.000     28.61
O(0)          5.112e-04
   O2              2.556e-04   2.556e-04    -3.592    -3.592     0.000     30.40

------------------------------Saturation indices-------------------------------

  Phase               SI** log IAP   log K(298 K,   1 atm)

  H2(g)           -41.29    -44.39   -3.10  H2
  H2O(g)           -1.50     -0.00    1.50  H2O
  O2(g)            -0.70     -3.59   -2.89  O2	 Pressure   0.2 atm, phi 1.000

**For a gas, SI = log10(fugacity). Fugacity = pressure * phi / 1 atm.
  For ideal gases, phi = 1.

------------------
End of simulation.
------------------

------------------------------------
Reading input data for simulation 2.
------------------------------------

----------------------------------
End of Run after 0.010087 Seconds.
----------------------------------

