   Input file: /Users/kezhang/Desktop/projects/geos/geos_github/work_space/dataset_q_00132/opalinus_dolomite.in
  Output file: /Users/kezhang/Desktop/projects/geos/geos_github/work_space/dataset_q_00132/result.out
Database file: /Users/kezhang/Desktop/projects/geos/phreeqc-3.8.6-17100/database/phreeqc.dat

------------------
Reading data base.
------------------

	SOLUTION_MASTER_SPECIES
	SOLUTION_SPECIES
	PHASES
	GAS_BINARY_PARAMETERS
	EXCHANGE_MASTER_SPECIES
	EXCHANGE_SPECIES
	SURFACE_MASTER_SPECIES
	SURFACE_SPECIES
	MEAN_GAMMAS
	RATES
	END
------------------------------------
Reading input data for simulation 1.
------------------------------------

	TITLE Opalinus Clay porewater - Mg from dolomite equilibrium
	SOLUTION 1
	    temp 25
	    pH 7.2
	    units mol/kgw
	    Cl 0.16
	    S(6) 0.024 as SO4
	    Ca 1.186e-2
	    Mg 1e-12
	    water 1
	EQUILIBRIUM_PHASES 1
	    CO2(g) -2.2 10
	    Dolomite 0 10
	END
-----
TITLE
-----

 Opalinus Clay porewater - Mg from dolomite equilibrium

-------------------------------------------
Beginning of initial solution calculations.
-------------------------------------------

Initial solution 1.	

-----------------------------Solution composition------------------------------

	Elements           Molality       Moles

	Ca                1.186e-02   1.186e-02
	Cl                1.600e-01   1.600e-01
	Mg                1.000e-12   1.000e-12
	S(6)              2.400e-02   2.400e-02

----------------------------Description of solution----------------------------

                                       pH  =   7.200    
                                       pe  =   4.000    
      Specific Conductance (µS/cm,  25°C)  = 13922
                          Density (g/cm³)  =   1.00212
                               Volume (L)  =   1.00632
                        Viscosity (mPa s)  =   0.90039
                        Activity of water  =   0.997
                 Ionic strength (mol/kgw)  =   1.377e-01
                       Mass of water (kg)  =   1.000e+00
                 Total alkalinity (eq/kg)  =   9.033e-08
                         Temperature (°C)  =  25.00
                  Electrical balance (eq)  =  -1.843e-01
 Percent error, 100*(Cat-|An|)/(Cat+|An|)  = -84.66
                               Iterations  =   5
                                  Total H  = 1.110124e+02
                                  Total O  = 5.560222e+01

----------------------------Distribution of species----------------------------

                                               Log       Log       Log    mole V
   Species          Molality    Activity  Molality  Activity     Gamma   cm³/mol

   OH-             2.170e-07   1.599e-07    -6.664    -6.796    -0.133     -3.64
   H+              7.767e-08   6.310e-08    -7.110    -7.200    -0.090      0.00
   H2O             5.551e+01   9.967e-01     1.744    -0.001     0.000     18.07
Ca            1.186e-02
   Ca+2            8.346e-03   2.978e-03    -2.079    -2.526    -0.448    -17.34
   CaSO4           3.514e-03   3.627e-03    -2.454    -2.440     0.014      7.50
   CaOH+           1.022e-08   7.807e-09    -7.991    -8.108    -0.117     (0)  
   CaHSO4+         1.969e-09   1.504e-09    -8.706    -8.823    -0.117     (0)  
Cl            1.600e-01
   Cl-             1.600e-01   1.189e-01    -0.796    -0.925    -0.129     18.39
   HCl             2.259e-09   2.585e-09    -8.646    -8.588     0.059     (0)  
H(0)          5.461e-26
   H2              2.730e-26   2.818e-26   -25.564   -25.550     0.014     28.61
Mg            1.000e-12
   Mg+2            5.988e-13   2.247e-13   -12.223   -12.648    -0.426    -21.04
   MgSO4           3.782e-13   4.030e-13   -12.422   -12.395     0.028     -7.92
   Mg(SO4)2-2      2.294e-14   9.091e-15   -13.639   -14.041    -0.402     22.00
   MgOH+           1.644e-17   1.289e-17   -16.784   -16.890    -0.106     (0)  
O(0)          0.000e+00
   O2              0.000e+00   0.000e+00   -41.297   -41.283     0.014     30.40
S(6)          2.400e-02
   SO4-2           2.049e-02   6.849e-03    -1.689    -2.164    -0.476     26.04
   CaSO4           3.514e-03   3.627e-03    -2.454    -2.440     0.014      7.50
   HSO4-           5.500e-08   4.202e-08    -7.260    -7.377    -0.117     40.59
   CaHSO4+         1.969e-09   1.504e-09    -8.706    -8.823    -0.117     (0)  
   MgSO4           3.782e-13   4.030e-13   -12.422   -12.395     0.028     -7.92
   Mg(SO4)2-2      2.294e-14   9.091e-15   -13.639   -14.041    -0.402     22.00

------------------------------Saturation indices-------------------------------

  Phase               SI** log IAP   log K(298 K,   1 atm)

  Anhydrite        -0.41     -4.69   -4.28  CaSO4
  Epsomite        -13.08    -14.82   -1.74  MgSO4:7H2O
  Gypsum           -0.11     -4.69   -4.58  CaSO4:2H2O
  H2(g)           -22.45    -25.55   -3.10  H2
  H2O(g)           -1.50     -0.00    1.50  H2O
  Hexahydrite     -13.25    -14.82   -1.57  MgSO4:6H2O
  Kieserite       -13.65    -14.81   -1.16  MgSO4:H2O
  O2(g)           -38.39    -41.28   -2.89  O2

**For a gas, SI = log10(fugacity). Fugacity = pressure * phi / 1 atm.
  For ideal gases, phi = 1.

-----------------------------------------
Beginning of batch-reaction calculations.
-----------------------------------------

Reaction step 1.

Using solution 1.	
Using pure phase assemblage 1.	

-------------------------------Phase assemblage--------------------------------

                                                      Moles in assemblage
Phase               SI  log IAP  log K(T, P)   Initial       Final       Delta

CO2(g)           -2.20    -3.67     -1.47    1.000e+01   9.998e+00  -1.986e-03
Dolomite          0.00   -17.08    -17.08    1.000e+01   9.999e+00  -9.029e-04

-----------------------------Solution composition------------------------------

	Elements           Molality       Moles

	C                 3.792e-03   3.792e-03
	Ca                1.276e-02   1.276e-02
	Cl                1.600e-01   1.600e-01
	Mg                9.030e-04   9.029e-04
	S                 2.400e-02   2.400e-02

----------------------------Description of solution----------------------------

                                       pH  =   7.451      Charge balance
                                       pe  =  -2.046      Adjusted to redox equilibrium
      Specific Conductance (µS/cm,  25°C)  = 14048
                          Density (g/cm³)  =   1.00234
                               Volume (L)  =   1.00636
                        Viscosity (mPa s)  =   0.90477
                        Activity of water  =   0.997
                 Ionic strength (mol/kgw)  =   1.410e-01
                       Mass of water (kg)  =   1.000e+00
                 Total alkalinity (eq/kg)  =   3.612e-03
                       Total CO2 (mol/kg)  =   3.792e-03
                         Temperature (°C)  =  25.00
                  Electrical balance (eq)  =  -1.843e-01
 Percent error, 100*(Cat-|An|)/(Cat+|An|)  = -82.73
                               Iterations  =  21
                                  Total H  = 1.110124e+02
                                  Total O  = 5.561161e+01

----------------------------Distribution of species----------------------------

                                               Log       Log       Log    mole V
   Species          Molality    Activity  Molality  Activity     Gamma   cm³/mol

   OH-             3.876e-07   2.848e-07    -6.412    -6.545    -0.134     -3.63
   H+              4.365e-08   3.542e-08    -7.360    -7.451    -0.091      0.00
   H2O             5.551e+01   9.966e-01     1.744    -0.001     0.000     18.07
C(-4)         2.984e-23
   CH4             2.984e-23   3.083e-23   -22.525   -22.511     0.014     35.46
C(4)          3.792e-03
   HCO3-           3.501e-03   2.687e-03    -2.456    -2.571    -0.115     25.01
   CO2             2.101e-04   2.147e-04    -3.677    -3.668     0.009     34.43
   CaHCO3+         4.281e-05   3.323e-05    -4.368    -4.478    -0.110    122.82
   CaCO3           1.855e-05   1.916e-05    -4.732    -4.718     0.014    -14.60
   CO3-2           1.026e-05   3.558e-06    -4.989    -5.449    -0.460     -2.53
   MgHCO3+         8.577e-06   6.384e-06    -5.067    -5.195    -0.128      5.69
   MgCO3           6.674e-07   6.894e-07    -6.176    -6.162     0.014    -17.09
   (CO2)2          8.190e-10   8.461e-10    -9.087    -9.073     0.014     68.87
Ca            1.276e-02
   Ca+2            9.047e-03   3.206e-03    -2.044    -2.494    -0.451    -17.33
   CaSO4           3.655e-03   3.776e-03    -2.437    -2.423     0.014      7.50
   CaHCO3+         4.281e-05   3.323e-05    -4.368    -4.478    -0.110    122.82
   CaCO3           1.855e-05   1.916e-05    -4.732    -4.718     0.014    -14.60
   CaOH+           1.963e-08   1.497e-08    -7.707    -7.825    -0.118     (0)  
   CaHSO4+         1.153e-09   8.790e-10    -8.938    -9.056    -0.118     (0)  
Cl            1.600e-01
   Cl-             1.600e-01   1.186e-01    -0.796    -0.926    -0.130     18.39
   HCl             1.261e-09   1.448e-09    -8.899    -8.839     0.060     (0)  
H(0)          2.128e-14
   H2              1.064e-14   1.099e-14   -13.973   -13.959     0.014     28.61
Mg            9.030e-04
   Mg+2            5.442e-04   2.030e-04    -3.264    -3.692    -0.428    -21.03
   MgSO4           3.300e-04   3.521e-04    -3.482    -3.453     0.028     -7.92
   Mg(SO4)2-2      1.949e-05   7.682e-06    -4.710    -5.115    -0.404     22.16
   MgHCO3+         8.577e-06   6.384e-06    -5.067    -5.195    -0.128      5.69
   MgCO3           6.674e-07   6.894e-07    -6.176    -6.162     0.014    -17.09
   MgOH+           2.650e-08   2.075e-08    -7.577    -7.683    -0.106     (0)  
O(0)          0.000e+00
   O2              0.000e+00   0.000e+00   -64.479   -64.465     0.014     30.40
S(-2)         1.024e-19
   HS-             8.391e-20   6.167e-20   -19.076   -19.210    -0.134     20.93
   H2S             1.849e-20   1.910e-20   -19.733   -19.719     0.014     36.27
   S-2             6.261e-25   2.103e-25   -24.203   -24.677    -0.474     (0)  
   (H2S)2          0.000e+00   0.000e+00   -40.730   -40.716     0.014     30.09
S(6)          2.400e-02
   SO4-2           1.998e-02   6.623e-03    -1.699    -2.179    -0.479     26.17
   CaSO4           3.655e-03   3.776e-03    -2.437    -2.423     0.014      7.50
   MgSO4           3.300e-04   3.521e-04    -3.482    -3.453     0.028     -7.92
   Mg(SO4)2-2      1.949e-05   7.682e-06    -4.710    -5.115    -0.404     22.16
   HSO4-           2.990e-08   2.281e-08    -7.524    -7.642    -0.118     40.59
   CaHSO4+         1.153e-09   8.790e-10    -8.938    -9.056    -0.118     (0)  

------------------------------Saturation indices-------------------------------

  Phase               SI** log IAP   log K(298 K,   1 atm)

  Anhydrite        -0.40     -4.67   -4.28  CaSO4
  Aragonite         0.39     -7.94   -8.34  CaCO3
  Calcite           0.54     -7.94   -8.48  CaCO3
  CH4(g)          -19.71    -22.51   -2.80  CH4
  CO2(g)           -2.20     -3.67   -1.47  CO2	 Pressure   0.0 atm, phi 1.000
  Dolomite          0.00    -17.08  -17.08  CaMg(CO3)2
  Epsomite         -4.14     -5.88   -1.74  MgSO4:7H2O
  Gypsum           -0.09     -4.68   -4.58  CaSO4:2H2O
  H2(g)           -10.86    -13.96   -3.10  H2
  H2O(g)           -1.50     -0.00    1.50  H2O
  H2S(g)          -18.72    -26.66   -7.94  H2S
  Hexahydrite      -4.31     -5.88   -1.57  MgSO4:6H2O
  Kieserite        -4.71     -5.87   -1.16  MgSO4:H2O
  O2(g)           -61.57    -64.46   -2.89  O2
  Sulfur          -13.79     -8.91    4.88  S

**For a gas, SI = log10(fugacity). Fugacity = pressure * phi / 1 atm.
  For ideal gases, phi = 1.

------------------
End of simulation.
------------------

------------------------------------
Reading input data for simulation 2.
------------------------------------

----------------------------------
End of Run after 0.010748 Seconds.
----------------------------------

