   Input file: /Users/kezhang/Desktop/projects/geos/geos_github/work_space/dataset_q_00189/goethite_kinetics.in
  Output file: /Users/kezhang/Desktop/projects/geos/geos_github/work_space/dataset_q_00189/result.out
Database file: /Users/kezhang/Desktop/projects/geos/phreeqc-3.8.6-17100/database/phreeqc.dat

------------------
Reading data base.
------------------

	SOLUTION_MASTER_SPECIES
	SOLUTION_SPECIES
	PHASES
	GAS_BINARY_PARAMETERS
	EXCHANGE_MASTER_SPECIES
	EXCHANGE_SPECIES
	SURFACE_MASTER_SPECIES
	SURFACE_SPECIES
	MEAN_GAMMAS
	RATES
	END
------------------------------------
Reading input data for simulation 1.
------------------------------------

	SOLUTION 1
	    temp      200
	    pH        2 charge
	    units     mmol/kgw
	    Fe(3)     4
	    Fe(2)     4
	    water    1
	GAS_PHASE 1
	    fixed_pressure
	    pressure 5
	    H2S(g)    5
	KINETICS 1
	    Albite
	    m0 1
	    parms 1.0 10
	    steps 1000 in 100 steps
	RATES
	Albite
	start
	 10 ssa = PARM(1)
	 20 k = PARM(2)
	 30 rate = k * ssa
	 40 moles = rate * TIME
	 50 SAVE moles
	end
	SELECTED_OUTPUT
	    reset false
	    time true
	    step true
	    si Goethite
	END
-------------------------------------------
Beginning of initial solution calculations.
-------------------------------------------

Initial solution 1.	

-----------------------------Solution composition------------------------------

	Elements           Molality       Moles

	Fe(2)             4.000e-03   4.000e-03
	Fe(3)             4.000e-03   4.000e-03

----------------------------Description of solution----------------------------

                                       pH  =   7.054      Charge balance
                                       pe  =   4.000    
      Specific Conductance (µS/cm, 200°C)  = 107
                          Density (g/cm³)  =   0.86535
                               Volume (L)  =   1.15651
                        Viscosity (mPa s)  =   0.13467
                        Activity of water  =   1.000
                 Ionic strength (mol/kgw)  =   2.150e-03
                       Mass of water (kg)  =   1.000e+00
                 Total alkalinity (eq/kg)  =   1.200e-02
                         Temperature (°C)  = 200.00
                  Electrical balance (eq)  =   9.089e-13
 Percent error, 100*(Cat-|An|)/(Cat+|An|)  =   0.00
                               Iterations  =  11
                                  Total H  = 1.110324e+02
                                  Total O  = 5.552623e+01

---------------------------------Redox couples---------------------------------

	Redox couple             pe  Eh (volts)

	Fe(2)/Fe(3)         -3.6710     -0.3446

----------------------------Distribution of species----------------------------

                                               Log       Log       Log    mole V
   Species          Molality    Activity  Molality  Activity     Gamma   cm³/mol

   OH-             5.891e-05   5.427e-05    -4.230    -4.265    -0.036    -26.14
   H+              9.530e-08   8.838e-08    -7.021    -7.054    -0.033      0.00
   H2O             5.551e+01   9.999e-01     1.744    -0.000     0.000     20.84
Fe(2)         4.000e-03
   Fe(OH)2         2.171e-03   2.173e-03    -2.663    -2.663     0.000     (0)  
   FeOH+           1.670e-03   1.541e-03    -2.777    -2.812    -0.035     (0)  
   Fe+2            1.559e-04   1.137e-04    -3.807    -3.944    -0.137    -21.85
   Fe(OH)3-        2.922e-06   2.697e-06    -5.534    -5.569    -0.035     (0)  
Fe(3)         4.000e-03
   Fe(OH)3         2.055e-03   2.056e-03    -2.687    -2.687     0.000     (0)  
   Fe(OH)4-        1.932e-03   1.784e-03    -2.714    -2.749    -0.035     (0)  
   Fe(OH)2+        1.249e-05   1.153e-05    -4.903    -4.938    -0.035     (0)  
   FeOH+2          6.474e-11   4.699e-11   -10.189   -10.328    -0.139     (0)  
   Fe+3            1.921e-18   9.749e-19   -17.716   -18.011    -0.295     (0)  
   Fe2(OH)2+4      2.310e-21   6.237e-22   -20.636   -21.205    -0.569     (0)  
   Fe3(OH)4+5      4.430e-28   5.728e-29   -27.354   -28.242    -0.888     (0)  
H(0)          3.687e-26
   H2              1.843e-26   1.844e-26   -25.734   -25.734     0.000     28.55
O(0)          9.489e-06
   O2              4.744e-06   4.747e-06    -5.324    -5.324     0.000     39.37

------------------------------Saturation indices-------------------------------

  Phase               SI** log IAP   log K(473 K,   1 atm)

  Fe(OH)3(a)       -1.74      3.15    4.89  Fe(OH)3
  Goethite          8.08      3.15   -4.93  FeOOH
  H2(g)           -22.93    -25.73   -2.81  H2
  H2O(g)            1.15     -0.00   -1.15  H2O
  Hematite         18.67      6.30  -12.37  Fe2O3
  O2(g)            -2.46     -5.32   -2.87  O2

**For a gas, SI = log10(fugacity). Fugacity = pressure * phi / 1 atm.
  For ideal gases, phi = 1.

-----------------------------------------
Beginning of batch-reaction calculations.
-----------------------------------------

Reaction step 1.

Using solution 1.	
Using gas phase 1.	
Using kinetics 1.	

Kinetics 1.	

	Time step: 10 seconds

	Rate name       Delta Moles Total Moles   Reactant        Coefficient

	Albite           -1.000e+00   0.000e+00   Albite                    1

-----------------------------------Gas phase-----------------------------------

Total pressure:  5.00      atmospheres          (Peng-Robinson calculation)
    Gas volume:   6.99e-01 liters
  Molar volume:   7.68e+00 liters/mole
   P * Vm / RT:  0.98942  (Compressibility Factor Z) 

                                                        Moles in gas
                                            ----------------------------------
Component         log P           P    phi     Initial       Final       Delta

H2S(g)             0.70   5.000e+00  0.989   2.131e-01   9.099e-02  -1.221e-01

-----------------------------Solution composition------------------------------

	Elements           Molality       Moles

	Al                1.168e+00   1.000e+00
	Fe                9.342e-03   8.000e-03
	Na                1.168e+00   1.000e+00
	S                 1.426e-01   1.221e-01
	Si                3.503e+00   3.000e+00

----------------------------Description of solution----------------------------

                                       pH  =   5.186      Charge balance
                                       pe  =  -4.021      Adjusted to redox equilibrium
      Specific Conductance (µS/cm, 200°C)  = 198201
                          Density (g/cm³)  =   1.11419
                               Volume (L)  =   1.13731
                        Viscosity (mPa s)  =   0.18174
                        Activity of water  =   0.899
                 Ionic strength (mol/kgw)  =   1.172e+00
                       Mass of water (kg)  =   8.564e-01
                 Total alkalinity (eq/kg)  =   4.688e+00
                         Temperature (°C)  = 200.00
                           Pressure (atm)  =  5.00
                  Electrical balance (eq)  =  -5.179e-10
 Percent error, 100*(Cat-|An|)/(Cat+|An|)  =  -0.00
                               Iterations  = 514
                                  Total H  = 1.112766e+02
                                  Total O  = 6.352623e+01

----------------------------Distribution of species----------------------------

                                               Log       Log       Log    mole V
   Species          Molality    Activity  Molality  Activity     Gamma   cm³/mol

   H+              1.016e-05   6.517e-06    -4.993    -5.186    -0.193      0.00
   OH-             1.552e-06   6.639e-07    -5.809    -6.178    -0.369    -16.86
   H2O             5.551e+01   8.986e-01     1.744    -0.046     0.000     20.84
Al            1.168e+00
   Al(OH)4-        1.162e+00   5.607e-01     0.065    -0.251    -0.316     (0)  
   Al(OH)2+        4.384e-03   2.299e-03    -2.358    -2.639    -0.280     (0)  
   Al(OH)3         1.652e-03   2.163e-03    -2.782    -2.665     0.117     (0)  
   AlOH+2          8.450e-05   6.387e-06    -4.073    -5.195    -1.122    -40.52
   Al+3            5.206e-08   9.578e-10    -7.283    -9.019    -1.735    -64.79
   AlSO4+          5.039e-11   2.432e-11   -10.298   -10.614    -0.316     (0)  
   Al(SO4)2-       5.145e-15   2.483e-15   -14.289   -14.605    -0.316     (0)  
   AlHSO4+2        2.150e-15   6.098e-16   -14.668   -15.215    -0.547     (0)  
Fe(2)         9.342e-03
   Fe(HS)2         6.672e-03   8.738e-03    -2.176    -2.059     0.117     (0)  
   Fe(HS)3-        2.643e-03   1.929e-03    -2.578    -2.715    -0.137     (0)  
   Fe+2            2.636e-05   2.390e-06    -4.579    -5.622    -1.043    -13.13
   FeOH+           7.798e-07   3.951e-07    -6.108    -6.403    -0.295     (0)  
   Fe(OH)2         5.193e-09   6.801e-09    -8.285    -8.167     0.117     (0)  
   FeSO4           4.726e-09   6.190e-09    -8.326    -8.208     0.117    -33.40
   FeHSO4+         8.736e-12   6.375e-12   -11.059   -11.195    -0.137     (0)  
   Fe(OH)3-        2.035e-13   1.031e-13   -12.691   -12.987    -0.295     (0)  
Fe(3)         5.842e-11
   Fe(OH)2+        3.079e-11   1.614e-11   -10.512   -10.792    -0.280     (0)  
   Fe(OH)3         2.683e-11   3.515e-11   -10.571   -10.454     0.117     (0)  
   Fe(OH)4-        7.104e-13   3.725e-13   -12.148   -12.429    -0.280     (0)  
   FeOH+2          8.174e-14   5.385e-15   -13.088   -14.269    -1.181     (0)  
   Fe+3            4.973e-19   9.148e-21   -18.303   -20.039    -1.735     (0)  
   FeSO4+          4.400e-21   2.229e-21   -20.357   -20.652    -0.295     (0)  
   FeHSO4+2        2.164e-24   6.139e-25   -23.665   -24.212    -0.547     (0)  
   Fe(SO4)2-       1.990e-25   1.452e-25   -24.701   -24.838    -0.137     (0)  
   Fe2(OH)2+4      1.265e-27   8.191e-30   -26.898   -29.087    -2.189     (0)  
   Fe3(OH)4+5      2.769e-39   0.000e+00   -38.558   -41.978    -3.420     (0)  
H(0)          1.680e-06
   H2              8.398e-07   1.100e-06    -6.076    -5.959     0.117     28.55
Na            1.168e+00
   Na+             1.167e+00   6.711e-01     0.067    -0.173    -0.240      2.85
   NaSO4-          5.539e-04   2.927e-04    -3.257    -3.534    -0.277      3.11
O(0)          0.000e+00
   O2              0.000e+00   0.000e+00   -45.087   -44.970     0.117     39.34
S(-2)         1.420e-01
   H2S             1.124e-01   1.472e-01    -0.949    -0.832     0.117     56.04
   Fe(HS)2         6.672e-03   8.738e-03    -2.176    -2.059     0.117     (0)  
   HS-             4.733e-03   2.024e-03    -2.325    -2.694    -0.369     12.69
   Fe(HS)3-        2.643e-03   1.929e-03    -2.578    -2.715    -0.137     (0)  
   (H2S)2          1.790e-03   2.344e-03    -2.747    -2.630     0.117     -4.79
   S-2             1.087e-06   7.163e-08    -5.964    -7.145    -1.181     (0)  
S(6)          5.868e-04
   NaSO4-          5.539e-04   2.927e-04    -3.257    -3.534    -0.277      3.11
   SO4-2           3.269e-05   1.933e-06    -4.486    -5.714    -1.228     10.86
   HSO4-           3.033e-07   2.214e-07    -6.518    -6.655    -0.137     36.56
   FeSO4           4.726e-09   6.190e-09    -8.326    -8.208     0.117    -33.40
   AlSO4+          5.039e-11   2.432e-11   -10.298   -10.614    -0.316     (0)  
   FeHSO4+         8.736e-12   6.375e-12   -11.059   -11.195    -0.137     (0)  
   Al(SO4)2-       5.145e-15   2.483e-15   -14.289   -14.605    -0.316     (0)  
   AlHSO4+2        2.150e-15   6.098e-16   -14.668   -15.215    -0.547     (0)  
   FeSO4+          4.400e-21   2.229e-21   -20.357   -20.652    -0.295     (0)  
   FeHSO4+2        2.164e-24   6.139e-25   -23.665   -24.212    -0.547     (0)  
   Fe(SO4)2-       1.990e-25   1.452e-25   -24.701   -24.838    -0.137     (0)  
Si            3.503e+00
   H4SiO4          3.501e+00   4.586e+00     0.544     0.661     0.117     46.23
   H3SiO4-         2.184e-03   9.969e-04    -2.661    -3.001    -0.341     18.54
   H2SiO4-2        6.874e-09   5.195e-10    -8.163    -9.284    -1.122     (0)  

------------------------------Saturation indices-------------------------------

  Phase               SI** log IAP   log K(473 K,   5 atm)

  Al(OH)3(a)        2.78      6.40    3.62  Al(OH)3
  Albite           12.91      1.93  -10.98  NaAlSi3O8
  Chalcedony        3.02      0.75   -2.27  SiO2
  Fe(OH)3(a)       -9.51     -4.62    4.89  Fe(OH)3
  FeS(ppt)          0.79     -3.13   -3.91  FeS
  Gibbsite          4.47      6.40    1.93  Al(OH)3
  Goethite          0.35     -4.57   -4.93  FeOOH
  H2(g)            -3.15     -5.96   -2.81  H2
  H2O(g)            1.11     -0.05   -1.15  H2O
  H2S(g)            0.69     -7.88   -8.57  H2S	 Pressure   5.0 atm, phi 0.989
  Hematite          3.27     -9.10  -12.37  Fe2O3
  Kaolinite        16.48     14.35   -2.13  Al2Si2O5(OH)4
  Mackinawite       1.52     -3.13   -4.65  FeS
  Melanterite     -10.18    -11.66   -1.48  FeSO4:7H2O
  Mirabilite       -5.17     -6.52   -1.35  Na2SO4:10H2O
  O2(g)           -42.10    -44.97   -2.87  O2
  Pyrite            6.74     -8.68  -15.42  FeS2
  Quartz            3.11      0.75   -2.36  SiO2
  SiO2(a)           2.56      0.75   -1.81  SiO2
  Sulfur           -0.81      1.50    2.30  S
  Thenardite       -4.25     -6.06   -1.81  Na2SO4

**For a gas, SI = log10(fugacity). Fugacity = pressure * phi / 1 atm.
  For ideal gases, phi = 1.

Reaction step 2.

Using solution 1.	
Using gas phase 1.	
Using kinetics 1.	

Kinetics 1.	

	Time step: 20 seconds

	Rate name       Delta Moles Total Moles   Reactant        Coefficient

	Albite           -1.000e+00   0.000e+00   Albite                    1

-----------------------------------Gas phase-----------------------------------

Total pressure:  5.00      atmospheres          (Peng-Robinson calculation)
    Gas volume:   6.99e-01 liters
  Molar volume:   7.68e+00 liters/mole
   P * Vm / RT:  0.98942  (Compressibility Factor Z) 

                                                        Moles in gas
                                            ----------------------------------
Component         log P           P    phi     Initial       Final       Delta

H2S(g)             0.70   5.000e+00  0.989   2.131e-01   9.099e-02  -1.221e-01

-----------------------------Solution composition------------------------------

	Elements           Molality       Moles

	Al                1.168e+00   1.000e+00
	Fe                9.342e-03   8.000e-03
	Na                1.168e+00   1.000e+00
	S                 1.426e-01   1.221e-01
	Si                3.503e+00   3.000e+00

----------------------------Description of solution----------------------------

                                       pH  =   5.186      Charge balance
                                       pe  =  -4.021      Adjusted to redox equilibrium
      Specific Conductance (µS/cm, 200°C)  = 198201
                          Density (g/cm³)  =   1.11419
                               Volume (L)  =   1.13731
                        Viscosity (mPa s)  =   0.18174
                        Activity of water  =   0.899
                 Ionic strength (mol/kgw)  =   1.172e+00
                       Mass of water (kg)  =   8.564e-01
                 Total alkalinity (eq/kg)  =   4.688e+00
                         Temperature (°C)  = 200.00
                           Pressure (atm)  =  5.00
                  Electrical balance (eq)  =  -5.177e-10
 Percent error, 100*(Cat-|An|)/(Cat+|An|)  =  -0.00
                               Iterations  = 514
                                  Total H  = 1.112766e+02
                                  Total O  = 6.352623e+01

----------------------------Distribution of species----------------------------

                                               Log       Log       Log    mole V
   Species          Molality    Activity  Molality  Activity     Gamma   cm³/mol

   H+              1.016e-05   6.517e-06    -4.993    -5.186    -0.193      0.00
   OH-             1.552e-06   6.639e-07    -5.809    -6.178    -0.369    -16.86
   H2O             5.551e+01   8.986e-01     1.744    -0.046     0.000     20.84
Al            1.168e+00
   Al(OH)4-        1.162e+00   5.607e-01     0.065    -0.251    -0.316     (0)  
   Al(OH)2+        4.384e-03   2.299e-03    -2.358    -2.639    -0.280     (0)  
   Al(OH)3         1.652e-03   2.163e-03    -2.782    -2.665     0.117     (0)  
   AlOH+2          8.450e-05   6.387e-06    -4.073    -5.195    -1.122    -40.52
   Al+3            5.206e-08   9.578e-10    -7.283    -9.019    -1.735    -64.79
   AlSO4+          5.039e-11   2.432e-11   -10.298   -10.614    -0.316     (0)  
   Al(SO4)2-       5.145e-15   2.483e-15   -14.289   -14.605    -0.316     (0)  
   AlHSO4+2        2.150e-15   6.098e-16   -14.668   -15.215    -0.547     (0)  
Fe(2)         9.342e-03
   Fe(HS)2         6.672e-03   8.738e-03    -2.176    -2.059     0.117     (0)  
   Fe(HS)3-        2.643e-03   1.929e-03    -2.578    -2.715    -0.137     (0)  
   Fe+2            2.636e-05   2.390e-06    -4.579    -5.622    -1.043    -13.13
   FeOH+           7.798e-07   3.951e-07    -6.108    -6.403    -0.295     (0)  
   Fe(OH)2         5.193e-09   6.801e-09    -8.285    -8.167     0.117     (0)  
   FeSO4           4.726e-09   6.190e-09    -8.326    -8.208     0.117    -33.40
   FeHSO4+         8.736e-12   6.375e-12   -11.059   -11.195    -0.137     (0)  
   Fe(OH)3-        2.035e-13   1.031e-13   -12.691   -12.987    -0.295     (0)  
Fe(3)         5.842e-11
   Fe(OH)2+        3.079e-11   1.614e-11   -10.512   -10.792    -0.280     (0)  
   Fe(OH)3         2.683e-11   3.515e-11   -10.571   -10.454     0.117     (0)  
   Fe(OH)4-        7.104e-13   3.725e-13   -12.148   -12.429    -0.280     (0)  
   FeOH+2          8.174e-14   5.385e-15   -13.088   -14.269    -1.181     (0)  
   Fe+3            4.973e-19   9.148e-21   -18.303   -20.039    -1.735     (0)  
   FeSO4+          4.400e-21   2.229e-21   -20.357   -20.652    -0.295     (0)  
   FeHSO4+2        2.164e-24   6.139e-25   -23.665   -24.212    -0.547     (0)  
   Fe(SO4)2-       1.990e-25   1.452e-25   -24.701   -24.838    -0.137     (0)  
   Fe2(OH)2+4      1.265e-27   8.191e-30   -26.898   -29.087    -2.189     (0)  
   Fe3(OH)4+5      2.769e-39   0.000e+00   -38.558   -41.978    -3.420     (0)  
H(0)          1.680e-06
   H2              8.398e-07   1.100e-06    -6.076    -5.959     0.117     28.55
Na            1.168e+00
   Na+             1.167e+00   6.711e-01     0.067    -0.173    -0.240      2.85
   NaSO4-          5.539e-04   2.927e-04    -3.257    -3.534    -0.277      3.11
O(0)          0.000e+00
   O2              0.000e+00   0.000e+00   -45.087   -44.970     0.117     39.34
S(-2)         1.420e-01
   H2S             1.124e-01   1.472e-01    -0.949    -0.832     0.117     56.04
   Fe(HS)2         6.672e-03   8.738e-03    -2.176    -2.059     0.117     (0)  
   HS-             4.733e-03   2.024e-03    -2.325    -2.694    -0.369     12.69
   Fe(HS)3-        2.643e-03   1.929e-03    -2.578    -2.715    -0.137     (0)  
   (H2S)2          1.790e-03   2.344e-03    -2.747    -2.630     0.117     -4.79
   S-2             1.087e-06   7.163e-08    -5.964    -7.145    -1.181     (0)  
S(6)          5.868e-04
   NaSO4-          5.539e-04   2.927e-04    -3.257    -3.534    -0.277      3.11
   SO4-2           3.269e-05   1.933e-06    -4.486    -5.714    -1.228     10.86
   HSO4-           3.033e-07   2.214e-07    -6.518    -6.655    -0.137     36.56
   FeSO4           4.726e-09   6.190e-09    -8.326    -8.208     0.117    -33.40
   AlSO4+          5.039e-11   2.432e-11   -10.298   -10.614    -0.316     (0)  
   FeHSO4+         8.736e-12   6.375e-12   -11.059   -11.195    -0.137     (0)  
   Al(SO4)2-       5.145e-15   2.483e-15   -14.289   -14.605    -0.316     (0)  
   AlHSO4+2        2.150e-15   6.098e-16   -14.668   -15.215    -0.547     (0)  
   FeSO4+          4.400e-21   2.229e-21   -20.357   -20.652    -0.295     (0)  
   FeHSO4+2        2.164e-24   6.139e-25   -23.665   -24.212    -0.547     (0)  
   Fe(SO4)2-       1.990e-25   1.452e-25   -24.701   -24.838    -0.137     (0)  
Si            3.503e+00
   H4SiO4          3.501e+00   4.586e+00     0.544     0.661     0.117     46.23
   H3SiO4-         2.184e-03   9.969e-04    -2.661    -3.001    -0.341     18.54
   H2SiO4-2        6.874e-09   5.195e-10    -8.163    -9.284    -1.122     (0)  

------------------------------Saturation indices-------------------------------

  Phase               SI** log IAP   log K(473 K,   5 atm)

  Al(OH)3(a)        2.78      6.40    3.62  Al(OH)3
  Albite           12.91      1.93  -10.98  NaAlSi3O8
  Chalcedony        3.02      0.75   -2.27  SiO2
  Fe(OH)3(a)       -9.51     -4.62    4.89  Fe(OH)3
  FeS(ppt)          0.79     -3.13   -3.91  FeS
  Gibbsite          4.47      6.40    1.93  Al(OH)3
  Goethite          0.35     -4.57   -4.93  FeOOH
  H2(g)            -3.15     -5.96   -2.81  H2
  H2O(g)            1.11     -0.05   -1.15  H2O
  H2S(g)            0.69     -7.88   -8.57  H2S	 Pressure   5.0 atm, phi 0.989
  Hematite          3.27     -9.10  -12.37  Fe2O3
  Kaolinite        16.48     14.35   -2.13  Al2Si2O5(OH)4
  Mackinawite       1.52     -3.13   -4.65  FeS
  Melanterite     -10.18    -11.66   -1.48  FeSO4:7H2O
  Mirabilite       -5.17     -6.52   -1.35  Na2SO4:10H2O
  O2(g)           -42.10    -44.97   -2.87  O2
  Pyrite            6.74     -8.68  -15.42  FeS2
  Quartz            3.11      0.75   -2.36  SiO2
  SiO2(a)           2.56      0.75   -1.81  SiO2
  Sulfur           -0.81      1.50    2.30  S
  Thenardite       -4.25     -6.06   -1.81  Na2SO4

**For a gas, SI = log10(fugacity). Fugacity = pressure * phi / 1 atm.
  For ideal gases, phi = 1.

Reaction step 3.

Using solution 1.	
Using gas phase 1.	
Using kinetics 1.	

Kinetics 1.	

	Time step: 30 seconds

	Rate name       Delta Moles Total Moles   Reactant        Coefficient

	Albite           -1.000e+00   0.000e+00   Albite                    1

-----------------------------------Gas phase-----------------------------------

Total pressure:  5.00      atmospheres          (Peng-Robinson calculation)
    Gas volume:   6.99e-01 liters
  Molar volume:   7.68e+00 liters/mole
   P * Vm / RT:  0.98942  (Compressibility Factor Z) 

                                                        Moles in gas
                                            ----------------------------------
Component         log P           P    phi     Initial       Final       Delta

H2S(g)             0.70   5.000e+00  0.989   2.131e-01   9.099e-02  -1.221e-01

-----------------------------Solution composition------------------------------

	Elements           Molality       Moles

	Al                1.168e+00   1.000e+00
	Fe                9.342e-03   8.000e-03
	Na                1.168e+00   1.000e+00
	S                 1.426e-01   1.221e-01
	Si                3.503e+00   3.000e+00

----------------------------Description of solution----------------------------

                                       pH  =   5.186      Charge balance
                                       pe  =  -4.021      Adjusted to redox equilibrium
      Specific Conductance (µS/cm, 200°C)  = 198201
                          Density (g/cm³)  =   1.11419
                               Volume (L)  =   1.13731
                        Viscosity (mPa s)  =   0.18174
                        Activity of water  =   0.899
                 Ionic strength (mol/kgw)  =   1.172e+00
                       Mass of water (kg)  =   8.564e-01
                 Total alkalinity (eq/kg)  =   4.688e+00
                         Temperature (°C)  = 200.00
                           Pressure (atm)  =  5.00
                  Electrical balance (eq)  =  -5.177e-10
 Percent error, 100*(Cat-|An|)/(Cat+|An|)  =  -0.00
                               Iterations  = 514
                                  Total H  = 1.112766e+02
                                  Total O  = 6.352623e+01

----------------------------Distribution of species----------------------------

                                               Log       Log       Log    mole V
   Species          Molality    Activity  Molality  Activity     Gamma   cm³/mol

   H+              1.016e-05   6.517e-06    -4.993    -5.186    -0.193      0.00
   OH-             1.552e-06   6.639e-07    -5.809    -6.178    -0.369    -16.86
   H2O             5.551e+01   8.986e-01     1.744    -0.046     0.000     20.84
Al            1.168e+00
   Al(OH)4-        1.162e+00   5.607e-01     0.065    -0.251    -0.316     (0)  
   Al(OH)2+        4.384e-03   2.299e-03    -2.358    -2.639    -0.280     (0)  
   Al(OH)3         1.652e-03   2.163e-03    -2.782    -2.665     0.117     (0)  
   AlOH+2          8.450e-05   6.387e-06    -4.073    -5.195    -1.122    -40.52
   Al+3            5.206e-08   9.578e-10    -7.283    -9.019    -1.735    -64.79
   AlSO4+          5.039e-11   2.432e-11   -10.298   -10.614    -0.316     (0)  
   Al(SO4)2-       5.145e-15   2.483e-15   -14.289   -14.605    -0.316     (0)  
   AlHSO4+2        2.150e-15   6.098e-16   -14.668   -15.215    -0.547     (0)  
Fe(2)         9.342e-03
   Fe(HS)2         6.672e-03   8.738e-03    -2.176    -2.059     0.117     (0)  
   Fe(HS)3-        2.643e-03   1.929e-03    -2.578    -2.715    -0.137     (0)  
   Fe+2            2.636e-05   2.390e-06    -4.579    -5.622    -1.043    -13.13
   FeOH+           7.798e-07   3.951e-07    -6.108    -6.403    -0.295     (0)  
   Fe(OH)2         5.193e-09   6.801e-09    -8.285    -8.167     0.117     (0)  
   FeSO4           4.726e-09   6.190e-09    -8.326    -8.208     0.117    -33.40
   FeHSO4+         8.736e-12   6.375e-12   -11.059   -11.195    -0.137     (0)  
   Fe(OH)3-        2.035e-13   1.031e-13   -12.691   -12.987    -0.295     (0)  
Fe(3)         5.842e-11
   Fe(OH)2+        3.079e-11   1.614e-11   -10.512   -10.792    -0.280     (0)  
   Fe(OH)3         2.683e-11   3.515e-11   -10.571   -10.454     0.117     (0)  
   Fe(OH)4-        7.104e-13   3.725e-13   -12.148   -12.429    -0.280     (0)  
   FeOH+2          8.174e-14   5.385e-15   -13.088   -14.269    -1.181     (0)  
   Fe+3            4.973e-19   9.148e-21   -18.303   -20.039    -1.735     (0)  
   FeSO4+          4.400e-21   2.229e-21   -20.357   -20.652    -0.295     (0)  
   FeHSO4+2        2.164e-24   6.139e-25   -23.665   -24.212    -0.547     (0)  
   Fe(SO4)2-       1.990e-25   1.452e-25   -24.701   -24.838    -0.137     (0)  
   Fe2(OH)2+4      1.265e-27   8.191e-30   -26.898   -29.087    -2.189     (0)  
   Fe3(OH)4+5      2.769e-39   0.000e+00   -38.558   -41.978    -3.420     (0)  
H(0)          1.680e-06
   H2              8.398e-07   1.100e-06    -6.076    -5.959     0.117     28.55
Na            1.168e+00
   Na+             1.167e+00   6.711e-01     0.067    -0.173    -0.240      2.85
   NaSO4-          5.539e-04   2.927e-04    -3.257    -3.534    -0.277      3.11
O(0)          0.000e+00
   O2              0.000e+00   0.000e+00   -45.087   -44.970     0.117     39.34
S(-2)         1.420e-01
   H2S             1.124e-01   1.472e-01    -0.949    -0.832     0.117     56.04
   Fe(HS)2         6.672e-03   8.738e-03    -2.176    -2.059     0.117     (0)  
   HS-             4.733e-03   2.024e-03    -2.325    -2.694    -0.369     12.69
   Fe(HS)3-        2.643e-03   1.929e-03    -2.578    -2.715    -0.137     (0)  
   (H2S)2          1.790e-03   2.344e-03    -2.747    -2.630     0.117     -4.79
   S-2             1.087e-06   7.163e-08    -5.964    -7.145    -1.181     (0)  
S(6)          5.868e-04
   NaSO4-          5.539e-04   2.927e-04    -3.257    -3.534    -0.277      3.11
   SO4-2           3.269e-05   1.933e-06    -4.486    -5.714    -1.228     10.86
   HSO4-           3.033e-07   2.214e-07    -6.518    -6.655    -0.137     36.56
   FeSO4           4.726e-09   6.190e-09    -8.326    -8.208     0.117    -33.40
   AlSO4+          5.039e-11   2.432e-11   -10.298   -10.614    -0.316     (0)  
   FeHSO4+         8.736e-12   6.375e-12   -11.059   -11.195    -0.137     (0)  
   Al(SO4)2-       5.145e-15   2.483e-15   -14.289   -14.605    -0.316     (0)  
   AlHSO4+2        2.150e-15   6.098e-16   -14.668   -15.215    -0.547     (0)  
   FeSO4+          4.400e-21   2.229e-21   -20.357   -20.652    -0.295     (0)  
   FeHSO4+2        2.164e-24   6.139e-25   -23.665   -24.212    -0.547     (0)  
   Fe(SO4)2-       1.990e-25   1.452e-25   -24.701   -24.838    -0.137     (0)  
Si            3.503e+00
   H4SiO4          3.501e+00   4.586e+00     0.544     0.661     0.117     46.23
   H3SiO4-         2.184e-03   9.969e-04    -2.661    -3.001    -0.341     18.54
   H2SiO4-2        6.874e-09   5.195e-10    -8.163    -9.284    -1.122     (0)  

------------------------------Saturation indices-------------------------------

  Phase               SI** log IAP   log K(473 K,   5 atm)

  Al(OH)3(a)        2.78      6.40    3.62  Al(OH)3
  Albite           12.91      1.93  -10.98  NaAlSi3O8
  Chalcedony        3.02      0.75   -2.27  SiO2
  Fe(OH)3(a)       -9.51     -4.62    4.89  Fe(OH)3
  FeS(ppt)          0.79     -3.13   -3.91  FeS
  Gibbsite          4.47      6.40    1.93  Al(OH)3
  Goethite          0.35     -4.57   -4.93  FeOOH
  H2(g)            -3.15     -5.96   -2.81  H2
  H2O(g)            1.11     -0.05   -1.15  H2O
  H2S(g)            0.69     -7.88   -8.57  H2S	 Pressure   5.0 atm, phi 0.989
  Hematite          3.27     -9.10  -12.37  Fe2O3
  Kaolinite        16.48     14.35   -2.13  Al2Si2O5(OH)4
  Mackinawite       1.52     -3.13   -4.65  FeS
  Melanterite     -10.18    -11.66   -1.48  FeSO4:7H2O
  Mirabilite       -5.17     -6.52   -1.35  Na2SO4:10H2O
  O2(g)           -42.10    -44.97   -2.87  O2
  Pyrite            6.74     -8.68  -15.42  FeS2
  Quartz            3.11      0.75   -2.36  SiO2
  SiO2(a)           2.56      0.75   -1.81  SiO2
  Sulfur           -0.81      1.50    2.30  S
  Thenardite       -4.25     -6.06   -1.81  Na2SO4

**For a gas, SI = log10(fugacity). Fugacity = pressure * phi / 1 atm.
  For ideal gases, phi = 1.

Reaction step 4.

Using solution 1.	
Using gas phase 1.	
Using kinetics 1.	

Kinetics 1.	

	Time step: 40 seconds

	Rate name       Delta Moles Total Moles   Reactant        Coefficient

	Albite           -1.000e+00   0.000e+00   Albite                    1

-----------------------------------Gas phase-----------------------------------

Total pressure:  5.00      atmospheres          (Peng-Robinson calculation)
    Gas volume:   6.99e-01 liters
  Molar volume:   7.68e+00 liters/mole
   P * Vm / RT:  0.98942  (Compressibility Factor Z) 

                                                        Moles in gas
                                            ----------------------------------
Component         log P           P    phi     Initial       Final       Delta

H2S(g)             0.70   5.000e+00  0.989   2.131e-01   9.099e-02  -1.221e-01

-----------------------------Solution composition------------------------------

	Elements           Molality       Moles

	Al                1.168e+00   1.000e+00
	Fe                9.342e-03   8.000e-03
	Na                1.168e+00   1.000e+00
	S                 1.426e-01   1.221e-01
	Si                3.503e+00   3.000e+00

----------------------------Description of solution----------------------------

                                       pH  =   5.186      Charge balance
                                       pe  =  -4.021      Adjusted to redox equilibrium
      Specific Conductance (µS/cm, 200°C)  = 198201
                          Density (g/cm³)  =   1.11419
                               Volume (L)  =   1.13731
                        Viscosity (mPa s)  =   0.18174
                        Activity of water  =   0.899
                 Ionic strength (mol/kgw)  =   1.172e+00
                       Mass of water (kg)  =   8.564e-01
                 Total alkalinity (eq/kg)  =   4.688e+00
                         Temperature (°C)  = 200.00
                           Pressure (atm)  =  5.00
                  Electrical balance (eq)  =  -5.176e-10
 Percent error, 100*(Cat-|An|)/(Cat+|An|)  =  -0.00
                               Iterations  = 514
                                  Total H  = 1.112766e+02
                                  Total O  = 6.352623e+01

----------------------------Distribution of species----------------------------

                                               Log       Log       Log    mole V
   Species          Molality    Activity  Molality  Activity     Gamma   cm³/mol

   H+              1.016e-05   6.517e-06    -4.993    -5.186    -0.193      0.00
   OH-             1.552e-06   6.639e-07    -5.809    -6.178    -0.369    -16.86
   H2O             5.551e+01   8.986e-01     1.744    -0.046     0.000     20.84
Al            1.168e+00
   Al(OH)4-        1.162e+00   5.607e-01     0.065    -0.251    -0.316     (0)  
   Al(OH)2+        4.384e-03   2.299e-03    -2.358    -2.639    -0.280     (0)  
   Al(OH)3         1.652e-03   2.163e-03    -2.782    -2.665     0.117     (0)  
   AlOH+2          8.450e-05   6.387e-06    -4.073    -5.195    -1.122    -40.52
   Al+3            5.206e-08   9.578e-10    -7.283    -9.019    -1.735    -64.79
   AlSO4+          5.039e-11   2.432e-11   -10.298   -10.614    -0.316     (0)  
   Al(SO4)2-       5.145e-15   2.483e-15   -14.289   -14.605    -0.316     (0)  
   AlHSO4+2        2.150e-15   6.098e-16   -14.668   -15.215    -0.547     (0)  
Fe(2)         9.342e-03
   Fe(HS)2         6.672e-03   8.738e-03    -2.176    -2.059     0.117     (0)  
   Fe(HS)3-        2.643e-03   1.929e-03    -2.578    -2.715    -0.137     (0)  
   Fe+2            2.636e-05   2.390e-06    -4.579    -5.622    -1.043    -13.13
   FeOH+           7.798e-07   3.951e-07    -6.108    -6.403    -0.295     (0)  
   Fe(OH)2         5.193e-09   6.801e-09    -8.285    -8.167     0.117     (0)  
   FeSO4           4.726e-09   6.190e-09    -8.326    -8.208     0.117    -33.40
   FeHSO4+         8.736e-12   6.375e-12   -11.059   -11.195    -0.137     (0)  
   Fe(OH)3-        2.035e-13   1.031e-13   -12.691   -12.987    -0.295     (0)  
Fe(3)         5.842e-11
   Fe(OH)2+        3.079e-11   1.614e-11   -10.512   -10.792    -0.280     (0)  
   Fe(OH)3         2.683e-11   3.515e-11   -10.571   -10.454     0.117     (0)  
   Fe(OH)4-        7.104e-13   3.725e-13   -12.148   -12.429    -0.280     (0)  
   FeOH+2          8.174e-14   5.385e-15   -13.088   -14.269    -1.181     (0)  
   Fe+3            4.973e-19   9.148e-21   -18.303   -20.039    -1.735     (0)  
   FeSO4+          4.400e-21   2.229e-21   -20.357   -20.652    -0.295     (0)  
   FeHSO4+2        2.164e-24   6.139e-25   -23.665   -24.212    -0.547     (0)  
   Fe(SO4)2-       1.990e-25   1.452e-25   -24.701   -24.838    -0.137     (0)  
   Fe2(OH)2+4      1.265e-27   8.191e-30   -26.898   -29.087    -2.189     (0)  
   Fe3(OH)4+5      2.769e-39   0.000e+00   -38.558   -41.978    -3.420     (0)  
H(0)          1.680e-06
   H2              8.398e-07   1.100e-06    -6.076    -5.959     0.117     28.55
Na            1.168e+00
   Na+             1.167e+00   6.711e-01     0.067    -0.173    -0.240      2.85
   NaSO4-          5.539e-04   2.927e-04    -3.257    -3.534    -0.277      3.11
O(0)          0.000e+00
   O2              0.000e+00   0.000e+00   -45.087   -44.970     0.117     39.34
S(-2)         1.420e-01
   H2S             1.124e-01   1.472e-01    -0.949    -0.832     0.117     56.04
   Fe(HS)2         6.672e-03   8.738e-03    -2.176    -2.059     0.117     (0)  
   HS-             4.733e-03   2.024e-03    -2.325    -2.694    -0.369     12.69
   Fe(HS)3-        2.643e-03   1.929e-03    -2.578    -2.715    -0.137     (0)  
   (H2S)2          1.790e-03   2.344e-03    -2.747    -2.630     0.117     -4.79
   S-2             1.087e-06   7.163e-08    -5.964    -7.145    -1.181     (0)  
S(6)          5.868e-04
   NaSO4-          5.539e-04   2.927e-04    -3.257    -3.534    -0.277      3.11
   SO4-2           3.269e-05   1.933e-06    -4.486    -5.714    -1.228     10.86
   HSO4-           3.033e-07   2.214e-07    -6.518    -6.655    -0.137     36.56
   FeSO4           4.726e-09   6.190e-09    -8.326    -8.208     0.117    -33.40
   AlSO4+          5.039e-11   2.432e-11   -10.298   -10.614    -0.316     (0)  
   FeHSO4+         8.736e-12   6.375e-12   -11.059   -11.195    -0.137     (0)  
   Al(SO4)2-       5.145e-15   2.483e-15   -14.289   -14.605    -0.316     (0)  
   AlHSO4+2        2.150e-15   6.098e-16   -14.668   -15.215    -0.547     (0)  
   FeSO4+          4.400e-21   2.229e-21   -20.357   -20.652    -0.295     (0)  
   FeHSO4+2        2.164e-24   6.139e-25   -23.665   -24.212    -0.547     (0)  
   Fe(SO4)2-       1.990e-25   1.452e-25   -24.701   -24.838    -0.137     (0)  
Si            3.503e+00
   H4SiO4          3.501e+00   4.586e+00     0.544     0.661     0.117     46.23
   H3SiO4-         2.184e-03   9.969e-04    -2.661    -3.001    -0.341     18.54
   H2SiO4-2        6.874e-09   5.195e-10    -8.163    -9.284    -1.122     (0)  

------------------------------Saturation indices-------------------------------

  Phase               SI** log IAP   log K(473 K,   5 atm)

  Al(OH)3(a)        2.78      6.40    3.62  Al(OH)3
  Albite           12.91      1.93  -10.98  NaAlSi3O8
  Chalcedony        3.02      0.75   -2.27  SiO2
  Fe(OH)3(a)       -9.51     -4.62    4.89  Fe(OH)3
  FeS(ppt)          0.79     -3.13   -3.91  FeS
  Gibbsite          4.47      6.40    1.93  Al(OH)3
  Goethite          0.35     -4.57   -4.93  FeOOH
  H2(g)            -3.15     -5.96   -2.81  H2
  H2O(g)            1.11     -0.05   -1.15  H2O
  H2S(g)            0.69     -7.88   -8.57  H2S	 Pressure   5.0 atm, phi 0.989
  Hematite          3.27     -9.10  -12.37  Fe2O3
  Kaolinite        16.48     14.35   -2.13  Al2Si2O5(OH)4
  Mackinawite       1.52     -3.13   -4.65  FeS
  Melanterite     -10.18    -11.66   -1.48  FeSO4:7H2O
  Mirabilite       -5.17     -6.52   -1.35  Na2SO4:10H2O
  O2(g)           -42.10    -44.97   -2.87  O2
  Pyrite            6.74     -8.68  -15.42  FeS2
  Quartz            3.11      0.75   -2.36  SiO2
  SiO2(a)           2.56      0.75   -1.81  SiO2
  Sulfur           -0.81      1.50    2.30  S
  Thenardite       -4.25     -6.06   -1.81  Na2SO4

**For a gas, SI = log10(fugacity). Fugacity = pressure * phi / 1 atm.
  For ideal gases, phi = 1.

Reaction step 5.

Using solution 1.	
Using gas phase 1.	
Using kinetics 1.	

Kinetics 1.	

	Time step: 50 seconds

	Rate name       Delta Moles Total Moles   Reactant        Coefficient

	Albite           -1.000e+00   0.000e+00   Albite                    1

-----------------------------------Gas phase-----------------------------------

Total pressure:  5.00      atmospheres          (Peng-Robinson calculation)
    Gas volume:   6.99e-01 liters
  Molar volume:   7.68e+00 liters/mole
   P * Vm / RT:  0.98942  (Compressibility Factor Z) 

                                                        Moles in gas
                                            ----------------------------------
Component         log P           P    phi     Initial       Final       Delta

H2S(g)             0.70   5.000e+00  0.989   2.131e-01   9.099e-02  -1.221e-01

-----------------------------Solution composition------------------------------

	Elements           Molality       Moles

	Al                1.168e+00   1.000e+00
	Fe                9.342e-03   8.000e-03
	Na                1.168e+00   1.000e+00
	S                 1.426e-01   1.221e-01
	Si                3.503e+00   3.000e+00

----------------------------Description of solution----------------------------

                                       pH  =   5.186      Charge balance
                                       pe  =  -4.021      Adjusted to redox equilibrium
      Specific Conductance (µS/cm, 200°C)  = 198201
                          Density (g/cm³)  =   1.11419
                               Volume (L)  =   1.13731
                        Viscosity (mPa s)  =   0.18174
                        Activity of water  =   0.899
                 Ionic strength (mol/kgw)  =   1.172e+00
                       Mass of water (kg)  =   8.564e-01
                 Total alkalinity (eq/kg)  =   4.688e+00
                         Temperature (°C)  = 200.00
                           Pressure (atm)  =  5.00
                  Electrical balance (eq)  =  -5.176e-10
 Percent error, 100*(Cat-|An|)/(Cat+|An|)  =  -0.00
                               Iterations  = 514
                                  Total H  = 1.112766e+02
                                  Total O  = 6.352623e+01

----------------------------Distribution of species----------------------------

                                               Log       Log       Log    mole V
   Species          Molality    Activity  Molality  Activity     Gamma   cm³/mol

   H+              1.016e-05   6.517e-06    -4.993    -5.186    -0.193      0.00
   OH-             1.552e-06   6.639e-07    -5.809    -6.178    -0.369    -16.86
   H2O             5.551e+01   8.986e-01     1.744    -0.046     0.000     20.84
Al            1.168e+00
   Al(OH)4-        1.162e+00   5.607e-01     0.065    -0.251    -0.316     (0)  
   Al(OH)2+        4.384e-03   2.299e-03    -2.358    -2.639    -0.280     (0)  
   Al(OH)3         1.652e-03   2.163e-03    -2.782    -2.665     0.117     (0)  
   AlOH+2          8.450e-05   6.387e-06    -4.073    -5.195    -1.122    -40.52
   Al+3            5.206e-08   9.578e-10    -7.283    -9.019    -1.735    -64.79
   AlSO4+          5.039e-11   2.432e-11   -10.298   -10.614    -0.316     (0)  
   Al(SO4)2-       5.145e-15   2.483e-15   -14.289   -14.605    -0.316     (0)  
   AlHSO4+2        2.150e-15   6.098e-16   -14.668   -15.215    -0.547     (0)  
Fe(2)         9.342e-03
   Fe(HS)2         6.672e-03   8.738e-03    -2.176    -2.059     0.117     (0)  
   Fe(HS)3-        2.643e-03   1.929e-03    -2.578    -2.715    -0.137     (0)  
   Fe+2            2.636e-05   2.390e-06    -4.579    -5.622    -1.043    -13.13
   FeOH+           7.798e-07   3.951e-07    -6.108    -6.403    -0.295     (0)  
   Fe(OH)2         5.193e-09   6.801e-09    -8.285    -8.167     0.117     (0)  
   FeSO4           4.726e-09   6.190e-09    -8.326    -8.208     0.117    -33.40
   FeHSO4+         8.736e-12   6.375e-12   -11.059   -11.195    -0.137     (0)  
   Fe(OH)3-        2.035e-13   1.031e-13   -12.691   -12.987    -0.295     (0)  
Fe(3)         5.842e-11
   Fe(OH)2+        3.079e-11   1.614e-11   -10.512   -10.792    -0.280     (0)  
   Fe(OH)3         2.683e-11   3.515e-11   -10.571   -10.454     0.117     (0)  
   Fe(OH)4-        7.104e-13   3.725e-13   -12.148   -12.429    -0.280     (0)  
   FeOH+2          8.174e-14   5.385e-15   -13.088   -14.269    -1.181     (0)  
   Fe+3            4.973e-19   9.148e-21   -18.303   -20.039    -1.735     (0)  
   FeSO4+          4.400e-21   2.229e-21   -20.357   -20.652    -0.295     (0)  
   FeHSO4+2        2.164e-24   6.139e-25   -23.665   -24.212    -0.547     (0)  
   Fe(SO4)2-       1.990e-25   1.452e-25   -24.701   -24.838    -0.137     (0)  
   Fe2(OH)2+4      1.265e-27   8.191e-30   -26.898   -29.087    -2.189     (0)  
   Fe3(OH)4+5      2.769e-39   0.000e+00   -38.558   -41.978    -3.420     (0)  
H(0)          1.680e-06
   H2              8.398e-07   1.100e-06    -6.076    -5.959     0.117     28.55
Na            1.168e+00
   Na+             1.167e+00   6.711e-01     0.067    -0.173    -0.240      2.85
   NaSO4-          5.539e-04   2.927e-04    -3.257    -3.534    -0.277      3.11
O(0)          0.000e+00
   O2              0.000e+00   0.000e+00   -45.087   -44.970     0.117     39.34
S(-2)         1.420e-01
   H2S             1.124e-01   1.472e-01    -0.949    -0.832     0.117     56.04
   Fe(HS)2         6.672e-03   8.738e-03    -2.176    -2.059     0.117     (0)  
   HS-             4.733e-03   2.024e-03    -2.325    -2.694    -0.369     12.69
   Fe(HS)3-        2.643e-03   1.929e-03    -2.578    -2.715    -0.137     (0)  
   (H2S)2          1.790e-03   2.344e-03    -2.747    -2.630     0.117     -4.79
   S-2             1.087e-06   7.163e-08    -5.964    -7.145    -1.181     (0)  
S(6)          5.868e-04
   NaSO4-          5.539e-04   2.927e-04    -3.257    -3.534    -0.277      3.11
   SO4-2           3.269e-05   1.933e-06    -4.486    -5.714    -1.228     10.86
   HSO4-           3.033e-07   2.214e-07    -6.518    -6.655    -0.137     36.56
   FeSO4           4.726e-09   6.190e-09    -8.326    -8.208     0.117    -33.40
   AlSO4+          5.039e-11   2.432e-11   -10.298   -10.614    -0.316     (0)  
   FeHSO4+         8.736e-12   6.375e-12   -11.059   -11.195    -0.137     (0)  
   Al(SO4)2-       5.145e-15   2.483e-15   -14.289   -14.605    -0.316     (0)  
   AlHSO4+2        2.150e-15   6.098e-16   -14.668   -15.215    -0.547     (0)  
   FeSO4+          4.400e-21   2.229e-21   -20.357   -20.652    -0.295     (0)  
   FeHSO4+2        2.164e-24   6.139e-25   -23.665   -24.212    -0.547     (0)  
   Fe(SO4)2-       1.990e-25   1.452e-25   -24.701   -24.838    -0.137     (0)  
Si            3.503e+00
   H4SiO4          3.501e+00   4.586e+00     0.544     0.661     0.117     46.23
   H3SiO4-         2.184e-03   9.969e-04    -2.661    -3.001    -0.341     18.54
   H2SiO4-2        6.874e-09   5.195e-10    -8.163    -9.284    -1.122     (0)  

------------------------------Saturation indices-------------------------------

  Phase               SI** log IAP   log K(473 K,   5 atm)

  Al(OH)3(a)        2.78      6.40    3.62  Al(OH)3
  Albite           12.91      1.93  -10.98  NaAlSi3O8
  Chalcedony        3.02      0.75   -2.27  SiO2
  Fe(OH)3(a)       -9.51     -4.62    4.89  Fe(OH)3
  FeS(ppt)          0.79     -3.13   -3.91  FeS
  Gibbsite          4.47      6.40    1.93  Al(OH)3
  Goethite          0.35     -4.57   -4.93  FeOOH
  H2(g)            -3.15     -5.96   -2.81  H2
  H2O(g)            1.11     -0.05   -1.15  H2O
  H2S(g)            0.69     -7.88   -8.57  H2S	 Pressure   5.0 atm, phi 0.989
  Hematite          3.27     -9.10  -12.37  Fe2O3
  Kaolinite        16.48     14.35   -2.13  Al2Si2O5(OH)4
  Mackinawite       1.52     -3.13   -4.65  FeS
  Melanterite     -10.18    -11.66   -1.48  FeSO4:7H2O
  Mirabilite       -5.17     -6.52   -1.35  Na2SO4:10H2O
  O2(g)           -42.10    -44.97   -2.87  O2
  Pyrite            6.74     -8.68  -15.42  FeS2
  Quartz            3.11      0.75   -2.36  SiO2
  SiO2(a)           2.56      0.75   -1.81  SiO2
  Sulfur           -0.81      1.50    2.30  S
  Thenardite       -4.25     -6.06   -1.81  Na2SO4

**For a gas, SI = log10(fugacity). Fugacity = pressure * phi / 1 atm.
  For ideal gases, phi = 1.

Reaction step 6.

Using solution 1.	
Using gas phase 1.	
Using kinetics 1.	

Kinetics 1.	

	Time step: 60 seconds

	Rate name       Delta Moles Total Moles   Reactant        Coefficient

	Albite           -1.000e+00   0.000e+00   Albite                    1

-----------------------------------Gas phase-----------------------------------

Total pressure:  5.00      atmospheres          (Peng-Robinson calculation)
    Gas volume:   6.99e-01 liters
  Molar volume:   7.68e+00 liters/mole
   P * Vm / RT:  0.98942  (Compressibility Factor Z) 

                                                        Moles in gas
                                            ----------------------------------
Component         log P           P    phi     Initial       Final       Delta

H2S(g)             0.70   5.000e+00  0.989   2.131e-01   9.099e-02  -1.221e-01

-----------------------------Solution composition------------------------------

	Elements           Molality       Moles

	Al                1.168e+00   1.000e+00
	Fe                9.342e-03   8.000e-03
	Na                1.168e+00   1.000e+00
	S                 1.426e-01   1.221e-01
	Si                3.503e+00   3.000e+00

----------------------------Description of solution----------------------------

                                       pH  =   5.186      Charge balance
                                       pe  =  -4.021      Adjusted to redox equilibrium
      Specific Conductance (µS/cm, 200°C)  = 198201
                          Density (g/cm³)  =   1.11419
                               Volume (L)  =   1.13731
                        Viscosity (mPa s)  =   0.18174
                        Activity of water  =   0.899
                 Ionic strength (mol/kgw)  =   1.172e+00
                       Mass of water (kg)  =   8.564e-01
                 Total alkalinity (eq/kg)  =   4.688e+00
                         Temperature (°C)  = 200.00
                           Pressure (atm)  =  5.00
                  Electrical balance (eq)  =  -5.176e-10
 Percent error, 100*(Cat-|An|)/(Cat+|An|)  =  -0.00
                               Iterations  = 514
                                  Total H  = 1.112766e+02
                                  Total O  = 6.352623e+01

----------------------------Distribution of species----------------------------

                                               Log       Log       Log    mole V
   Species          Molality    Activity  Molality  Activity     Gamma   cm³/mol

   H+              1.016e-05   6.517e-06    -4.993    -5.186    -0.193      0.00
   OH-             1.552e-06   6.639e-07    -5.809    -6.178    -0.369    -16.86
   H2O             5.551e+01   8.986e-01     1.744    -0.046     0.000     20.84
Al            1.168e+00
   Al(OH)4-        1.162e+00   5.607e-01     0.065    -0.251    -0.316     (0)  
   Al(OH)2+        4.384e-03   2.299e-03    -2.358    -2.639    -0.280     (0)  
   Al(OH)3         1.652e-03   2.163e-03    -2.782    -2.665     0.117     (0)  
   AlOH+2          8.450e-05   6.387e-06    -4.073    -5.195    -1.122    -40.52
   Al+3            5.206e-08   9.578e-10    -7.283    -9.019    -1.735    -64.79
   AlSO4+          5.039e-11   2.432e-11   -10.298   -10.614    -0.316     (0)  
   Al(SO4)2-       5.145e-15   2.483e-15   -14.289   -14.605    -0.316     (0)  
   AlHSO4+2        2.150e-15   6.098e-16   -14.668   -15.215    -0.547     (0)  
Fe(2)         9.342e-03
   Fe(HS)2         6.672e-03   8.738e-03    -2.176    -2.059     0.117     (0)  
   Fe(HS)3-        2.643e-03   1.929e-03    -2.578    -2.715    -0.137     (0)  
   Fe+2            2.636e-05   2.390e-06    -4.579    -5.622    -1.043    -13.13
   FeOH+           7.798e-07   3.951e-07    -6.108    -6.403    -0.295     (0)  
   Fe(OH)2         5.193e-09   6.801e-09    -8.285    -8.167     0.117     (0)  
   FeSO4           4.726e-09   6.190e-09    -8.326    -8.208     0.117    -33.40
   FeHSO4+         8.736e-12   6.375e-12   -11.059   -11.195    -0.137     (0)  
   Fe(OH)3-        2.035e-13   1.031e-13   -12.691   -12.987    -0.295     (0)  
Fe(3)         5.842e-11
   Fe(OH)2+        3.079e-11   1.614e-11   -10.512   -10.792    -0.280     (0)  
   Fe(OH)3         2.683e-11   3.515e-11   -10.571   -10.454     0.117     (0)  
   Fe(OH)4-        7.104e-13   3.725e-13   -12.148   -12.429    -0.280     (0)  
   FeOH+2          8.174e-14   5.385e-15   -13.088   -14.269    -1.181     (0)  
   Fe+3            4.973e-19   9.148e-21   -18.303   -20.039    -1.735     (0)  
   FeSO4+          4.400e-21   2.229e-21   -20.357   -20.652    -0.295     (0)  
   FeHSO4+2        2.164e-24   6.139e-25   -23.665   -24.212    -0.547     (0)  
   Fe(SO4)2-       1.990e-25   1.452e-25   -24.701   -24.838    -0.137     (0)  
   Fe2(OH)2+4      1.265e-27   8.191e-30   -26.898   -29.087    -2.189     (0)  
   Fe3(OH)4+5      2.769e-39   0.000e+00   -38.558   -41.978    -3.420     (0)  
H(0)          1.680e-06
   H2              8.398e-07   1.100e-06    -6.076    -5.959     0.117     28.55
Na            1.168e+00
   Na+             1.167e+00   6.711e-01     0.067    -0.173    -0.240      2.85
   NaSO4-          5.539e-04   2.927e-04    -3.257    -3.534    -0.277      3.11
O(0)          0.000e+00
   O2              0.000e+00   0.000e+00   -45.087   -44.970     0.117     39.34
S(-2)         1.420e-01
   H2S             1.124e-01   1.472e-01    -0.949    -0.832     0.117     56.04
   Fe(HS)2         6.672e-03   8.738e-03    -2.176    -2.059     0.117     (0)  
   HS-             4.733e-03   2.024e-03    -2.325    -2.694    -0.369     12.69
   Fe(HS)3-        2.643e-03   1.929e-03    -2.578    -2.715    -0.137     (0)  
   (H2S)2          1.790e-03   2.344e-03    -2.747    -2.630     0.117     -4.79
   S-2             1.087e-06   7.163e-08    -5.964    -7.145    -1.181     (0)  
S(6)          5.868e-04
   NaSO4-          5.539e-04   2.927e-04    -3.257    -3.534    -0.277      3.11
   SO4-2           3.269e-05   1.933e-06    -4.486    -5.714    -1.228     10.86
   HSO4-           3.033e-07   2.214e-07    -6.518    -6.655    -0.137     36.56
   FeSO4           4.726e-09   6.190e-09    -8.326    -8.208     0.117    -33.40
   AlSO4+          5.039e-11   2.432e-11   -10.298   -10.614    -0.316     (0)  
   FeHSO4+         8.736e-12   6.375e-12   -11.059   -11.195    -0.137     (0)  
   Al(SO4)2-       5.145e-15   2.483e-15   -14.289   -14.605    -0.316     (0)  
   AlHSO4+2        2.150e-15   6.098e-16   -14.668   -15.215    -0.547     (0)  
   FeSO4+          4.400e-21   2.229e-21   -20.357   -20.652    -0.295     (0)  
   FeHSO4+2        2.164e-24   6.139e-25   -23.665   -24.212    -0.547     (0)  
   Fe(SO4)2-       1.990e-25   1.452e-25   -24.701   -24.838    -0.137     (0)  
Si            3.503e+00
   H4SiO4          3.501e+00   4.586e+00     0.544     0.661     0.117     46.23
   H3SiO4-         2.184e-03   9.969e-04    -2.661    -3.001    -0.341     18.54
   H2SiO4-2        6.874e-09   5.195e-10    -8.163    -9.284    -1.122     (0)  

------------------------------Saturation indices-------------------------------

  Phase               SI** log IAP   log K(473 K,   5 atm)

  Al(OH)3(a)        2.78      6.40    3.62  Al(OH)3
  Albite           12.91      1.93  -10.98  NaAlSi3O8
  Chalcedony        3.02      0.75   -2.27  SiO2
  Fe(OH)3(a)       -9.51     -4.62    4.89  Fe(OH)3
  FeS(ppt)          0.79     -3.13   -3.91  FeS
  Gibbsite          4.47      6.40    1.93  Al(OH)3
  Goethite          0.35     -4.57   -4.93  FeOOH
  H2(g)            -3.15     -5.96   -2.81  H2
  H2O(g)            1.11     -0.05   -1.15  H2O
  H2S(g)            0.69     -7.88   -8.57  H2S	 Pressure   5.0 atm, phi 0.989
  Hematite          3.27     -9.10  -12.37  Fe2O3
  Kaolinite        16.48     14.35   -2.13  Al2Si2O5(OH)4
  Mackinawite       1.52     -3.13   -4.65  FeS
  Melanterite     -10.18    -11.66   -1.48  FeSO4:7H2O
  Mirabilite       -5.17     -6.52   -1.35  Na2SO4:10H2O
  O2(g)           -42.10    -44.97   -2.87  O2
  Pyrite            6.74     -8.68  -15.42  FeS2
  Quartz            3.11      0.75   -2.36  SiO2
  SiO2(a)           2.56      0.75   -1.81  SiO2
  Sulfur           -0.81      1.50    2.30  S
  Thenardite       -4.25     -6.06   -1.81  Na2SO4

**For a gas, SI = log10(fugacity). Fugacity = pressure * phi / 1 atm.
  For ideal gases, phi = 1.

Reaction step 7.

Using solution 1.	
Using gas phase 1.	
Using kinetics 1.	

Kinetics 1.	

	Time step: 70 seconds

	Rate name       Delta Moles Total Moles   Reactant        Coefficient

	Albite           -1.000e+00   0.000e+00   Albite                    1

-----------------------------------Gas phase-----------------------------------

Total pressure:  5.00      atmospheres          (Peng-Robinson calculation)
    Gas volume:   6.99e-01 liters
  Molar volume:   7.68e+00 liters/mole
   P * Vm / RT:  0.98942  (Compressibility Factor Z) 

                                                        Moles in gas
                                            ----------------------------------
Component         log P           P    phi     Initial       Final       Delta

H2S(g)             0.70   5.000e+00  0.989   2.131e-01   9.099e-02  -1.221e-01

-----------------------------Solution composition------------------------------

	Elements           Molality       Moles

	Al                1.168e+00   1.000e+00
	Fe                9.342e-03   8.000e-03
	Na                1.168e+00   1.000e+00
	S                 1.426e-01   1.221e-01
	Si                3.503e+00   3.000e+00

----------------------------Description of solution----------------------------

                                       pH  =   5.186      Charge balance
                                       pe  =  -4.021      Adjusted to redox equilibrium
      Specific Conductance (µS/cm, 200°C)  = 198201
                          Density (g/cm³)  =   1.11419
                               Volume (L)  =   1.13731
                        Viscosity (mPa s)  =   0.18174
                        Activity of water  =   0.899
                 Ionic strength (mol/kgw)  =   1.172e+00
                       Mass of water (kg)  =   8.564e-01
                 Total alkalinity (eq/kg)  =   4.688e+00
                         Temperature (°C)  = 200.00
                           Pressure (atm)  =  5.00
                  Electrical balance (eq)  =  -5.176e-10
 Percent error, 100*(Cat-|An|)/(Cat+|An|)  =  -0.00
                               Iterations  = 521
                                  Total H  = 1.112766e+02
                                  Total O  = 6.352623e+01

----------------------------Distribution of species----------------------------

                                               Log       Log       Log    mole V
   Species          Molality    Activity  Molality  Activity     Gamma   cm³/mol

   H+              1.016e-05   6.517e-06    -4.993    -5.186    -0.193      0.00
   OH-             1.552e-06   6.639e-07    -5.809    -6.178    -0.369    -16.86
   H2O             5.551e+01   8.986e-01     1.744    -0.046     0.000     20.84
Al            1.168e+00
   Al(OH)4-        1.162e+00   5.607e-01     0.065    -0.251    -0.316     (0)  
   Al(OH)2+        4.384e-03   2.299e-03    -2.358    -2.639    -0.280     (0)  
   Al(OH)3         1.652e-03   2.163e-03    -2.782    -2.665     0.117     (0)  
   AlOH+2          8.450e-05   6.387e-06    -4.073    -5.195    -1.122    -40.52
   Al+3            5.206e-08   9.578e-10    -7.283    -9.019    -1.735    -64.79
   AlSO4+          5.039e-11   2.432e-11   -10.298   -10.614    -0.316     (0)  
   Al(SO4)2-       5.145e-15   2.483e-15   -14.289   -14.605    -0.316     (0)  
   AlHSO4+2        2.150e-15   6.098e-16   -14.668   -15.215    -0.547     (0)  
Fe(2)         9.342e-03
   Fe(HS)2         6.672e-03   8.738e-03    -2.176    -2.059     0.117     (0)  
   Fe(HS)3-        2.643e-03   1.929e-03    -2.578    -2.715    -0.137     (0)  
   Fe+2            2.636e-05   2.390e-06    -4.579    -5.622    -1.043    -13.13
   FeOH+           7.798e-07   3.951e-07    -6.108    -6.403    -0.295     (0)  
   Fe(OH)2         5.193e-09   6.801e-09    -8.285    -8.167     0.117     (0)  
   FeSO4           4.726e-09   6.190e-09    -8.326    -8.208     0.117    -33.40
   FeHSO4+         8.736e-12   6.375e-12   -11.059   -11.195    -0.137     (0)  
   Fe(OH)3-        2.035e-13   1.031e-13   -12.691   -12.987    -0.295     (0)  
Fe(3)         5.842e-11
   Fe(OH)2+        3.079e-11   1.614e-11   -10.512   -10.792    -0.280     (0)  
   Fe(OH)3         2.683e-11   3.515e-11   -10.571   -10.454     0.117     (0)  
   Fe(OH)4-        7.104e-13   3.725e-13   -12.148   -12.429    -0.280     (0)  
   FeOH+2          8.174e-14   5.385e-15   -13.088   -14.269    -1.181     (0)  
   Fe+3            4.973e-19   9.148e-21   -18.303   -20.039    -1.735     (0)  
   FeSO4+          4.400e-21   2.229e-21   -20.357   -20.652    -0.295     (0)  
   FeHSO4+2        2.164e-24   6.139e-25   -23.665   -24.212    -0.547     (0)  
   Fe(SO4)2-       1.990e-25   1.452e-25   -24.701   -24.838    -0.137     (0)  
   Fe2(OH)2+4      1.265e-27   8.191e-30   -26.898   -29.087    -2.189     (0)  
   Fe3(OH)4+5      2.769e-39   0.000e+00   -38.558   -41.978    -3.420     (0)  
H(0)          1.680e-06
   H2              8.398e-07   1.100e-06    -6.076    -5.959     0.117     28.55
Na            1.168e+00
   Na+             1.167e+00   6.711e-01     0.067    -0.173    -0.240      2.85
   NaSO4-          5.539e-04   2.927e-04    -3.257    -3.534    -0.277      3.11
O(0)          0.000e+00
   O2              0.000e+00   0.000e+00   -45.087   -44.970     0.117     39.34
S(-2)         1.420e-01
   H2S             1.124e-01   1.472e-01    -0.949    -0.832     0.117     56.04
   Fe(HS)2         6.672e-03   8.738e-03    -2.176    -2.059     0.117     (0)  
   HS-             4.733e-03   2.024e-03    -2.325    -2.694    -0.369     12.69
   Fe(HS)3-        2.643e-03   1.929e-03    -2.578    -2.715    -0.137     (0)  
   (H2S)2          1.790e-03   2.344e-03    -2.747    -2.630     0.117     -4.79
   S-2             1.087e-06   7.163e-08    -5.964    -7.145    -1.181     (0)  
S(6)          5.868e-04
   NaSO4-          5.539e-04   2.927e-04    -3.257    -3.534    -0.277      3.11
   SO4-2           3.269e-05   1.933e-06    -4.486    -5.714    -1.228     10.86
   HSO4-           3.033e-07   2.214e-07    -6.518    -6.655    -0.137     36.56
   FeSO4           4.726e-09   6.190e-09    -8.326    -8.208     0.117    -33.40
   AlSO4+          5.039e-11   2.432e-11   -10.298   -10.614    -0.316     (0)  
   FeHSO4+         8.736e-12   6.375e-12   -11.059   -11.195    -0.137     (0)  
   Al(SO4)2-       5.145e-15   2.483e-15   -14.289   -14.605    -0.316     (0)  
   AlHSO4+2        2.150e-15   6.098e-16   -14.668   -15.215    -0.547     (0)  
   FeSO4+          4.400e-21   2.229e-21   -20.357   -20.652    -0.295     (0)  
   FeHSO4+2        2.164e-24   6.139e-25   -23.665   -24.212    -0.547     (0)  
   Fe(SO4)2-       1.990e-25   1.452e-25   -24.701   -24.838    -0.137     (0)  
Si            3.503e+00
   H4SiO4          3.501e+00   4.586e+00     0.544     0.661     0.117     46.23
   H3SiO4-         2.184e-03   9.969e-04    -2.661    -3.001    -0.341     18.54
   H2SiO4-2        6.874e-09   5.195e-10    -8.163    -9.284    -1.122     (0)  

------------------------------Saturation indices-------------------------------

  Phase               SI** log IAP   log K(473 K,   5 atm)

  Al(OH)3(a)        2.78      6.40    3.62  Al(OH)3
  Albite           12.91      1.93  -10.98  NaAlSi3O8
  Chalcedony        3.02      0.75   -2.27  SiO2
  Fe(OH)3(a)       -9.51     -4.62    4.89  Fe(OH)3
  FeS(ppt)          0.79     -3.13   -3.91  FeS
  Gibbsite          4.47      6.40    1.93  Al(OH)3
  Goethite          0.35     -4.57   -4.93  FeOOH
  H2(g)            -3.15     -5.96   -2.81  H2
  H2O(g)            1.11     -0.05   -1.15  H2O
  H2S(g)            0.69     -7.88   -8.57  H2S	 Pressure   5.0 atm, phi 0.989
  Hematite          3.27     -9.10  -12.37  Fe2O3
  Kaolinite        16.48     14.35   -2.13  Al2Si2O5(OH)4
  Mackinawite       1.52     -3.13   -4.65  FeS
  Melanterite     -10.18    -11.66   -1.48  FeSO4:7H2O
  Mirabilite       -5.17     -6.52   -1.35  Na2SO4:10H2O
  O2(g)           -42.10    -44.97   -2.87  O2
  Pyrite            6.74     -8.68  -15.42  FeS2
  Quartz            3.11      0.75   -2.36  SiO2
  SiO2(a)           2.56      0.75   -1.81  SiO2
  Sulfur           -0.81      1.50    2.30  S
  Thenardite       -4.25     -6.06   -1.81  Na2SO4

**For a gas, SI = log10(fugacity). Fugacity = pressure * phi / 1 atm.
  For ideal gases, phi = 1.

Reaction step 8.

Using solution 1.	
Using gas phase 1.	
Using kinetics 1.	

Kinetics 1.	

	Time step: 80 seconds

	Rate name       Delta Moles Total Moles   Reactant        Coefficient

	Albite           -1.000e+00   0.000e+00   Albite                    1

-----------------------------------Gas phase-----------------------------------

Total pressure:  5.00      atmospheres          (Peng-Robinson calculation)
    Gas volume:   6.99e-01 liters
  Molar volume:   7.68e+00 liters/mole
   P * Vm / RT:  0.98942  (Compressibility Factor Z) 

                                                        Moles in gas
                                            ----------------------------------
Component         log P           P    phi     Initial       Final       Delta

H2S(g)             0.70   5.000e+00  0.989   2.131e-01   9.099e-02  -1.221e-01

-----------------------------Solution composition------------------------------

	Elements           Molality       Moles

	Al                1.168e+00   1.000e+00
	Fe                9.342e-03   8.000e-03
	Na                1.168e+00   1.000e+00
	S                 1.426e-01   1.221e-01
	Si                3.503e+00   3.000e+00

----------------------------Description of solution----------------------------

                                       pH  =   5.186      Charge balance
                                       pe  =  -4.021      Adjusted to redox equilibrium
      Specific Conductance (µS/cm, 200°C)  = 198201
                          Density (g/cm³)  =   1.11419
                               Volume (L)  =   1.13731
                        Viscosity (mPa s)  =   0.18174
                        Activity of water  =   0.899
                 Ionic strength (mol/kgw)  =   1.172e+00
                       Mass of water (kg)  =   8.564e-01
                 Total alkalinity (eq/kg)  =   4.688e+00
                         Temperature (°C)  = 200.00
                           Pressure (atm)  =  5.00
                  Electrical balance (eq)  =  -5.176e-10
 Percent error, 100*(Cat-|An|)/(Cat+|An|)  =  -0.00
                               Iterations  = 514
                                  Total H  = 1.112766e+02
                                  Total O  = 6.352623e+01

----------------------------Distribution of species----------------------------

                                               Log       Log       Log    mole V
   Species          Molality    Activity  Molality  Activity     Gamma   cm³/mol

   H+              1.016e-05   6.517e-06    -4.993    -5.186    -0.193      0.00
   OH-             1.552e-06   6.639e-07    -5.809    -6.178    -0.369    -16.86
   H2O             5.551e+01   8.986e-01     1.744    -0.046     0.000     20.84
Al            1.168e+00
   Al(OH)4-        1.162e+00   5.607e-01     0.065    -0.251    -0.316     (0)  
   Al(OH)2+        4.384e-03   2.299e-03    -2.358    -2.639    -0.280     (0)  
   Al(OH)3         1.652e-03   2.163e-03    -2.782    -2.665     0.117     (0)  
   AlOH+2          8.450e-05   6.387e-06    -4.073    -5.195    -1.122    -40.52
   Al+3            5.206e-08   9.578e-10    -7.283    -9.019    -1.735    -64.79
   AlSO4+          5.039e-11   2.432e-11   -10.298   -10.614    -0.316     (0)  
   Al(SO4)2-       5.145e-15   2.483e-15   -14.289   -14.605    -0.316     (0)  
   AlHSO4+2        2.150e-15   6.098e-16   -14.668   -15.215    -0.547     (0)  
Fe(2)         9.342e-03
   Fe(HS)2         6.672e-03   8.738e-03    -2.176    -2.059     0.117     (0)  
   Fe(HS)3-        2.643e-03   1.929e-03    -2.578    -2.715    -0.137     (0)  
   Fe+2            2.636e-05   2.390e-06    -4.579    -5.622    -1.043    -13.13
   FeOH+           7.798e-07   3.951e-07    -6.108    -6.403    -0.295     (0)  
   Fe(OH)2         5.193e-09   6.801e-09    -8.285    -8.167     0.117     (0)  
   FeSO4           4.726e-09   6.190e-09    -8.326    -8.208     0.117    -33.40
   FeHSO4+         8.736e-12   6.375e-12   -11.059   -11.195    -0.137     (0)  
   Fe(OH)3-        2.035e-13   1.031e-13   -12.691   -12.987    -0.295     (0)  
Fe(3)         5.842e-11
   Fe(OH)2+        3.079e-11   1.614e-11   -10.512   -10.792    -0.280     (0)  
   Fe(OH)3         2.683e-11   3.515e-11   -10.571   -10.454     0.117     (0)  
   Fe(OH)4-        7.104e-13   3.725e-13   -12.148   -12.429    -0.280     (0)  
   FeOH+2          8.174e-14   5.385e-15   -13.088   -14.269    -1.181     (0)  
   Fe+3            4.973e-19   9.148e-21   -18.303   -20.039    -1.735     (0)  
   FeSO4+          4.400e-21   2.229e-21   -20.357   -20.652    -0.295     (0)  
   FeHSO4+2        2.164e-24   6.139e-25   -23.665   -24.212    -0.547     (0)  
   Fe(SO4)2-       1.990e-25   1.452e-25   -24.701   -24.838    -0.137     (0)  
   Fe2(OH)2+4      1.265e-27   8.191e-30   -26.898   -29.087    -2.189     (0)  
   Fe3(OH)4+5      2.769e-39   0.000e+00   -38.558   -41.978    -3.420     (0)  
H(0)          1.680e-06
   H2              8.398e-07   1.100e-06    -6.076    -5.959     0.117     28.55
Na            1.168e+00
   Na+             1.167e+00   6.711e-01     0.067    -0.173    -0.240      2.85
   NaSO4-          5.539e-04   2.927e-04    -3.257    -3.534    -0.277      3.11
O(0)          0.000e+00
   O2              0.000e+00   0.000e+00   -45.087   -44.970     0.117     39.34
S(-2)         1.420e-01
   H2S             1.124e-01   1.472e-01    -0.949    -0.832     0.117     56.04
   Fe(HS)2         6.672e-03   8.738e-03    -2.176    -2.059     0.117     (0)  
   HS-             4.733e-03   2.024e-03    -2.325    -2.694    -0.369     12.69
   Fe(HS)3-        2.643e-03   1.929e-03    -2.578    -2.715    -0.137     (0)  
   (H2S)2          1.790e-03   2.344e-03    -2.747    -2.630     0.117     -4.79
   S-2             1.087e-06   7.163e-08    -5.964    -7.145    -1.181     (0)  
S(6)          5.868e-04
   NaSO4-          5.539e-04   2.927e-04    -3.257    -3.534    -0.277      3.11
   SO4-2           3.269e-05   1.933e-06    -4.486    -5.714    -1.228     10.86
   HSO4-           3.033e-07   2.214e-07    -6.518    -6.655    -0.137     36.56
   FeSO4           4.726e-09   6.190e-09    -8.326    -8.208     0.117    -33.40
   AlSO4+          5.039e-11   2.432e-11   -10.298   -10.614    -0.316     (0)  
   FeHSO4+         8.736e-12   6.375e-12   -11.059   -11.195    -0.137     (0)  
   Al(SO4)2-       5.145e-15   2.483e-15   -14.289   -14.605    -0.316     (0)  
   AlHSO4+2        2.150e-15   6.098e-16   -14.668   -15.215    -0.547     (0)  
   FeSO4+          4.400e-21   2.229e-21   -20.357   -20.652    -0.295     (0)  
   FeHSO4+2        2.164e-24   6.139e-25   -23.665   -24.212    -0.547     (0)  
   Fe(SO4)2-       1.990e-25   1.452e-25   -24.701   -24.838    -0.137     (0)  
Si            3.503e+00
   H4SiO4          3.501e+00   4.586e+00     0.544     0.661     0.117     46.23
   H3SiO4-         2.184e-03   9.969e-04    -2.661    -3.001    -0.341     18.54
   H2SiO4-2        6.874e-09   5.195e-10    -8.163    -9.284    -1.122     (0)  

------------------------------Saturation indices-------------------------------

  Phase               SI** log IAP   log K(473 K,   5 atm)

  Al(OH)3(a)        2.78      6.40    3.62  Al(OH)3
  Albite           12.91      1.93  -10.98  NaAlSi3O8
  Chalcedony        3.02      0.75   -2.27  SiO2
  Fe(OH)3(a)       -9.51     -4.62    4.89  Fe(OH)3
  FeS(ppt)          0.79     -3.13   -3.91  FeS
  Gibbsite          4.47      6.40    1.93  Al(OH)3
  Goethite          0.35     -4.57   -4.93  FeOOH
  H2(g)            -3.15     -5.96   -2.81  H2
  H2O(g)            1.11     -0.05   -1.15  H2O
  H2S(g)            0.69     -7.88   -8.57  H2S	 Pressure   5.0 atm, phi 0.989
  Hematite          3.27     -9.10  -12.37  Fe2O3
  Kaolinite        16.48     14.35   -2.13  Al2Si2O5(OH)4
  Mackinawite       1.52     -3.13   -4.65  FeS
  Melanterite     -10.18    -11.66   -1.48  FeSO4:7H2O
  Mirabilite       -5.17     -6.52   -1.35  Na2SO4:10H2O
  O2(g)           -42.10    -44.97   -2.87  O2
  Pyrite            6.74     -8.68  -15.42  FeS2
  Quartz            3.11      0.75   -2.36  SiO2
  SiO2(a)           2.56      0.75   -1.81  SiO2
  Sulfur           -0.81      1.50    2.30  S
  Thenardite       -4.25     -6.06   -1.81  Na2SO4

**For a gas, SI = log10(fugacity). Fugacity = pressure * phi / 1 atm.
  For ideal gases, phi = 1.

Reaction step 9.

Using solution 1.	
Using gas phase 1.	
Using kinetics 1.	

Kinetics 1.	

	Time step: 90 seconds

	Rate name       Delta Moles Total Moles   Reactant        Coefficient

	Albite           -1.000e+00   0.000e+00   Albite                    1

-----------------------------------Gas phase-----------------------------------

Total pressure:  5.00      atmospheres          (Peng-Robinson calculation)
    Gas volume:   6.99e-01 liters
  Molar volume:   7.68e+00 liters/mole
   P * Vm / RT:  0.98942  (Compressibility Factor Z) 

                                                        Moles in gas
                                            ----------------------------------
Component         log P           P    phi     Initial       Final       Delta

H2S(g)             0.70   5.000e+00  0.989   2.131e-01   9.099e-02  -1.221e-01

-----------------------------Solution composition------------------------------

	Elements           Molality       Moles

	Al                1.168e+00   1.000e+00
	Fe                9.342e-03   8.000e-03
	Na                1.168e+00   1.000e+00
	S                 1.426e-01   1.221e-01
	Si                3.503e+00   3.000e+00

----------------------------Description of solution----------------------------

                                       pH  =   5.186      Charge balance
                                       pe  =  -4.021      Adjusted to redox equilibrium
      Specific Conductance (µS/cm, 200°C)  = 198201
                          Density (g/cm³)  =   1.11419
                               Volume (L)  =   1.13731
                        Viscosity (mPa s)  =   0.18174
                        Activity of water  =   0.899
                 Ionic strength (mol/kgw)  =   1.172e+00
                       Mass of water (kg)  =   8.564e-01
                 Total alkalinity (eq/kg)  =   4.688e+00
                         Temperature (°C)  = 200.00
                           Pressure (atm)  =  5.00
                  Electrical balance (eq)  =  -5.176e-10
 Percent error, 100*(Cat-|An|)/(Cat+|An|)  =  -0.00
                               Iterations  = 514
                                  Total H  = 1.112766e+02
                                  Total O  = 6.352623e+01

----------------------------Distribution of species----------------------------

                                               Log       Log       Log    mole V
   Species          Molality    Activity  Molality  Activity     Gamma   cm³/mol

   H+              1.016e-05   6.517e-06    -4.993    -5.186    -0.193      0.00
   OH-             1.552e-06   6.639e-07    -5.809    -6.178    -0.369    -16.86
   H2O             5.551e+01   8.986e-01     1.744    -0.046     0.000     20.84
Al            1.168e+00
   Al(OH)4-        1.162e+00   5.607e-01     0.065    -0.251    -0.316     (0)  
   Al(OH)2+        4.384e-03   2.299e-03    -2.358    -2.639    -0.280     (0)  
   Al(OH)3         1.652e-03   2.163e-03    -2.782    -2.665     0.117     (0)  
   AlOH+2          8.450e-05   6.387e-06    -4.073    -5.195    -1.122    -40.52
   Al+3            5.206e-08   9.578e-10    -7.283    -9.019    -1.735    -64.79
   AlSO4+          5.039e-11   2.432e-11   -10.298   -10.614    -0.316     (0)  
   Al(SO4)2-       5.145e-15   2.483e-15   -14.289   -14.605    -0.316     (0)  
   AlHSO4+2        2.150e-15   6.098e-16   -14.668   -15.215    -0.547     (0)  
Fe(2)         9.342e-03
   Fe(HS)2         6.672e-03   8.738e-03    -2.176    -2.059     0.117     (0)  
   Fe(HS)3-        2.643e-03   1.929e-03    -2.578    -2.715    -0.137     (0)  
   Fe+2            2.636e-05   2.390e-06    -4.579    -5.622    -1.043    -13.13
   FeOH+           7.798e-07   3.951e-07    -6.108    -6.403    -0.295     (0)  
   Fe(OH)2         5.193e-09   6.801e-09    -8.285    -8.167     0.117     (0)  
   FeSO4           4.726e-09   6.190e-09    -8.326    -8.208     0.117    -33.40
   FeHSO4+         8.736e-12   6.375e-12   -11.059   -11.195    -0.137     (0)  
   Fe(OH)3-        2.035e-13   1.031e-13   -12.691   -12.987    -0.295     (0)  
Fe(3)         5.842e-11
   Fe(OH)2+        3.079e-11   1.614e-11   -10.512   -10.792    -0.280     (0)  
   Fe(OH)3         2.683e-11   3.515e-11   -10.571   -10.454     0.117     (0)  
   Fe(OH)4-        7.104e-13   3.725e-13   -12.148   -12.429    -0.280     (0)  
   FeOH+2          8.174e-14   5.385e-15   -13.088   -14.269    -1.181     (0)  
   Fe+3            4.973e-19   9.148e-21   -18.303   -20.039    -1.735     (0)  
   FeSO4+          4.400e-21   2.229e-21   -20.357   -20.652    -0.295     (0)  
   FeHSO4+2        2.164e-24   6.139e-25   -23.665   -24.212    -0.547     (0)  
   Fe(SO4)2-       1.990e-25   1.452e-25   -24.701   -24.838    -0.137     (0)  
   Fe2(OH)2+4      1.265e-27   8.191e-30   -26.898   -29.087    -2.189     (0)  
   Fe3(OH)4+5      2.769e-39   0.000e+00   -38.558   -41.978    -3.420     (0)  
H(0)          1.680e-06
   H2              8.398e-07   1.100e-06    -6.076    -5.959     0.117     28.55
Na            1.168e+00
   Na+             1.167e+00   6.711e-01     0.067    -0.173    -0.240      2.85
   NaSO4-          5.539e-04   2.927e-04    -3.257    -3.534    -0.277      3.11
O(0)          0.000e+00
   O2              0.000e+00   0.000e+00   -45.087   -44.970     0.117     39.34
S(-2)         1.420e-01
   H2S             1.124e-01   1.472e-01    -0.949    -0.832     0.117     56.04
   Fe(HS)2         6.672e-03   8.738e-03    -2.176    -2.059     0.117     (0)  
   HS-             4.733e-03   2.024e-03    -2.325    -2.694    -0.369     12.69
   Fe(HS)3-        2.643e-03   1.929e-03    -2.578    -2.715    -0.137     (0)  
   (H2S)2          1.790e-03   2.344e-03    -2.747    -2.630     0.117     -4.79
   S-2             1.087e-06   7.163e-08    -5.964    -7.145    -1.181     (0)  
S(6)          5.868e-04
   NaSO4-          5.539e-04   2.927e-04    -3.257    -3.534    -0.277      3.11
   SO4-2           3.269e-05   1.933e-06    -4.486    -5.714    -1.228     10.86
   HSO4-           3.033e-07   2.214e-07    -6.518    -6.655    -0.137     36.56
   FeSO4           4.726e-09   6.190e-09    -8.326    -8.208     0.117    -33.40
   AlSO4+          5.039e-11   2.432e-11   -10.298   -10.614    -0.316     (0)  
   FeHSO4+         8.736e-12   6.375e-12   -11.059   -11.195    -0.137     (0)  
   Al(SO4)2-       5.145e-15   2.483e-15   -14.289   -14.605    -0.316     (0)  
   AlHSO4+2        2.150e-15   6.098e-16   -14.668   -15.215    -0.547     (0)  
   FeSO4+          4.400e-21   2.229e-21   -20.357   -20.652    -0.295     (0)  
   FeHSO4+2        2.164e-24   6.139e-25   -23.665   -24.212    -0.547     (0)  
   Fe(SO4)2-       1.990e-25   1.452e-25   -24.701   -24.838    -0.137     (0)  
Si            3.503e+00
   H4SiO4          3.501e+00   4.586e+00     0.544     0.661     0.117     46.23
   H3SiO4-         2.184e-03   9.969e-04    -2.661    -3.001    -0.341     18.54
   H2SiO4-2        6.874e-09   5.195e-10    -8.163    -9.284    -1.122     (0)  

------------------------------Saturation indices-------------------------------

  Phase               SI** log IAP   log K(473 K,   5 atm)

  Al(OH)3(a)        2.78      6.40    3.62  Al(OH)3
  Albite           12.91      1.93  -10.98  NaAlSi3O8
  Chalcedony        3.02      0.75   -2.27  SiO2
  Fe(OH)3(a)       -9.51     -4.62    4.89  Fe(OH)3
  FeS(ppt)          0.79     -3.13   -3.91  FeS
  Gibbsite          4.47      6.40    1.93  Al(OH)3
  Goethite          0.35     -4.57   -4.93  FeOOH
  H2(g)            -3.15     -5.96   -2.81  H2
  H2O(g)            1.11     -0.05   -1.15  H2O
  H2S(g)            0.69     -7.88   -8.57  H2S	 Pressure   5.0 atm, phi 0.989
  Hematite          3.27     -9.10  -12.37  Fe2O3
  Kaolinite        16.48     14.35   -2.13  Al2Si2O5(OH)4
  Mackinawite       1.52     -3.13   -4.65  FeS
  Melanterite     -10.18    -11.66   -1.48  FeSO4:7H2O
  Mirabilite       -5.17     -6.52   -1.35  Na2SO4:10H2O
  O2(g)           -42.10    -44.97   -2.87  O2
  Pyrite            6.74     -8.68  -15.42  FeS2
  Quartz            3.11      0.75   -2.36  SiO2
  SiO2(a)           2.56      0.75   -1.81  SiO2
  Sulfur           -0.81      1.50    2.30  S
  Thenardite       -4.25     -6.06   -1.81  Na2SO4

**For a gas, SI = log10(fugacity). Fugacity = pressure * phi / 1 atm.
  For ideal gases, phi = 1.

Reaction step 10.

Using solution 1.	
Using gas phase 1.	
Using kinetics 1.	

Kinetics 1.	

[...]
   Fe+3            4.973e-19   9.148e-21   -18.303   -20.039    -1.735     (0)  
   FeSO4+          4.400e-21   2.229e-21   -20.357   -20.652    -0.295     (0)  
   FeHSO4+2        2.164e-24   6.139e-25   -23.665   -24.212    -0.547     (0)  
   Fe(SO4)2-       1.990e-25   1.452e-25   -24.701   -24.838    -0.137     (0)  
   Fe2(OH)2+4      1.265e-27   8.191e-30   -26.898   -29.087    -2.189     (0)  
   Fe3(OH)4+5      2.769e-39   0.000e+00   -38.558   -41.978    -3.420     (0)  
H(0)          1.680e-06
   H2              8.398e-07   1.100e-06    -6.076    -5.959     0.117     28.55
Na            1.168e+00
   Na+             1.167e+00   6.711e-01     0.067    -0.173    -0.240      2.85
   NaSO4-          5.539e-04   2.927e-04    -3.257    -3.534    -0.277      3.11
O(0)          0.000e+00
   O2              0.000e+00   0.000e+00   -45.087   -44.970     0.117     39.34
S(-2)         1.420e-01
   H2S             1.124e-01   1.472e-01    -0.949    -0.832     0.117     56.04
   Fe(HS)2         6.672e-03   8.738e-03    -2.176    -2.059     0.117     (0)  
   HS-             4.733e-03   2.024e-03    -2.325    -2.694    -0.369     12.69
   Fe(HS)3-        2.643e-03   1.929e-03    -2.578    -2.715    -0.137     (0)  
   (H2S)2          1.790e-03   2.344e-03    -2.747    -2.630     0.117     -4.79
   S-2             1.087e-06   7.163e-08    -5.964    -7.145    -1.181     (0)  
S(6)          5.868e-04
   NaSO4-          5.539e-04   2.927e-04    -3.257    -3.534    -0.277      3.11
   SO4-2           3.269e-05   1.933e-06    -4.486    -5.714    -1.228     10.86
   HSO4-           3.033e-07   2.214e-07    -6.518    -6.655    -0.137     36.56
   FeSO4           4.726e-09   6.190e-09    -8.326    -8.208     0.117    -33.40
   AlSO4+          5.039e-11   2.432e-11   -10.298   -10.614    -0.316     (0)  
   FeHSO4+         8.736e-12   6.375e-12   -11.059   -11.195    -0.137     (0)  
   Al(SO4)2-       5.145e-15   2.483e-15   -14.289   -14.605    -0.316     (0)  
   AlHSO4+2        2.150e-15   6.098e-16   -14.668   -15.215    -0.547     (0)  
   FeSO4+          4.400e-21   2.229e-21   -20.357   -20.652    -0.295     (0)  
   FeHSO4+2        2.164e-24   6.139e-25   -23.665   -24.212    -0.547     (0)  
   Fe(SO4)2-       1.990e-25   1.452e-25   -24.701   -24.838    -0.137     (0)  
Si            3.503e+00
   H4SiO4          3.501e+00   4.586e+00     0.544     0.661     0.117     46.23
   H3SiO4-         2.184e-03   9.969e-04    -2.661    -3.001    -0.341     18.54
   H2SiO4-2        6.874e-09   5.195e-10    -8.163    -9.284    -1.122     (0)  

------------------------------Saturation indices-------------------------------

  Phase               SI** log IAP   log K(473 K,   5 atm)

  Al(OH)3(a)        2.78      6.40    3.62  Al(OH)3
  Albite           12.91      1.93  -10.98  NaAlSi3O8
  Chalcedony        3.02      0.75   -2.27  SiO2
  Fe(OH)3(a)       -9.51     -4.62    4.89  Fe(OH)3
  FeS(ppt)          0.79     -3.13   -3.91  FeS
  Gibbsite          4.47      6.40    1.93  Al(OH)3
  Goethite          0.35     -4.57   -4.93  FeOOH
  H2(g)            -3.15     -5.96   -2.81  H2
  H2O(g)            1.11     -0.05   -1.15  H2O
  H2S(g)            0.69     -7.88   -8.57  H2S	 Pressure   5.0 atm, phi 0.989
  Hematite          3.27     -9.10  -12.37  Fe2O3
  Kaolinite        16.48     14.35   -2.13  Al2Si2O5(OH)4
  Mackinawite       1.52     -3.13   -4.65  FeS
  Melanterite     -10.18    -11.66   -1.48  FeSO4:7H2O
  Mirabilite       -5.17     -6.52   -1.35  Na2SO4:10H2O
  O2(g)           -42.10    -44.97   -2.87  O2
  Pyrite            6.74     -8.68  -15.42  FeS2
  Quartz            3.11      0.75   -2.36  SiO2
  SiO2(a)           2.56      0.75   -1.81  SiO2
  Sulfur           -0.81      1.50    2.30  S
  Thenardite       -4.25     -6.06   -1.81  Na2SO4

**For a gas, SI = log10(fugacity). Fugacity = pressure * phi / 1 atm.
  For ideal gases, phi = 1.

Reaction step 84.

Using solution 1.	
Using gas phase 1.	
Using kinetics 1.	

Kinetics 1.	

	Time step: 840 seconds

	Rate name       Delta Moles Total Moles   Reactant        Coefficient

	Albite           -1.000e+00   0.000e+00   Albite                    1

-----------------------------------Gas phase-----------------------------------

Total pressure:  5.00      atmospheres          (Peng-Robinson calculation)
    Gas volume:   6.99e-01 liters
  Molar volume:   7.68e+00 liters/mole
   P * Vm / RT:  0.98942  (Compressibility Factor Z) 

                                                        Moles in gas
                                            ----------------------------------
Component         log P           P    phi     Initial       Final       Delta

H2S(g)             0.70   5.000e+00  0.989   2.131e-01   9.099e-02  -1.221e-01

-----------------------------Solution composition------------------------------

	Elements           Molality       Moles

	Al                1.168e+00   1.000e+00
	Fe                9.342e-03   8.000e-03
	Na                1.168e+00   1.000e+00
	S                 1.426e-01   1.221e-01
	Si                3.503e+00   3.000e+00

----------------------------Description of solution----------------------------

                                       pH  =   5.186      Charge balance
                                       pe  =  -4.021      Adjusted to redox equilibrium
      Specific Conductance (µS/cm, 200°C)  = 198201
                          Density (g/cm³)  =   1.11419
                               Volume (L)  =   1.13731
                        Viscosity (mPa s)  =   0.18174
                        Activity of water  =   0.899
                 Ionic strength (mol/kgw)  =   1.172e+00
                       Mass of water (kg)  =   8.564e-01
                 Total alkalinity (eq/kg)  =   4.688e+00
                         Temperature (°C)  = 200.00
                           Pressure (atm)  =  5.00
                  Electrical balance (eq)  =  -5.175e-10
 Percent error, 100*(Cat-|An|)/(Cat+|An|)  =  -0.00
                               Iterations  = 514
                                  Total H  = 1.112766e+02
                                  Total O  = 6.352623e+01

----------------------------Distribution of species----------------------------

                                               Log       Log       Log    mole V
   Species          Molality    Activity  Molality  Activity     Gamma   cm³/mol

   H+              1.016e-05   6.517e-06    -4.993    -5.186    -0.193      0.00
   OH-             1.552e-06   6.639e-07    -5.809    -6.178    -0.369    -16.86
   H2O             5.551e+01   8.986e-01     1.744    -0.046     0.000     20.84
Al            1.168e+00
   Al(OH)4-        1.162e+00   5.607e-01     0.065    -0.251    -0.316     (0)  
   Al(OH)2+        4.384e-03   2.299e-03    -2.358    -2.639    -0.280     (0)  
   Al(OH)3         1.652e-03   2.163e-03    -2.782    -2.665     0.117     (0)  
   AlOH+2          8.450e-05   6.387e-06    -4.073    -5.195    -1.122    -40.52
   Al+3            5.206e-08   9.578e-10    -7.283    -9.019    -1.735    -64.79
   AlSO4+          5.039e-11   2.432e-11   -10.298   -10.614    -0.316     (0)  
   Al(SO4)2-       5.145e-15   2.483e-15   -14.289   -14.605    -0.316     (0)  
   AlHSO4+2        2.150e-15   6.098e-16   -14.668   -15.215    -0.547     (0)  
Fe(2)         9.342e-03
   Fe(HS)2         6.672e-03   8.738e-03    -2.176    -2.059     0.117     (0)  
   Fe(HS)3-        2.643e-03   1.929e-03    -2.578    -2.715    -0.137     (0)  
   Fe+2            2.636e-05   2.390e-06    -4.579    -5.622    -1.043    -13.13
   FeOH+           7.798e-07   3.951e-07    -6.108    -6.403    -0.295     (0)  
   Fe(OH)2         5.193e-09   6.801e-09    -8.285    -8.167     0.117     (0)  
   FeSO4           4.726e-09   6.190e-09    -8.326    -8.208     0.117    -33.40
   FeHSO4+         8.736e-12   6.375e-12   -11.059   -11.195    -0.137     (0)  
   Fe(OH)3-        2.035e-13   1.031e-13   -12.691   -12.987    -0.295     (0)  
Fe(3)         5.842e-11
   Fe(OH)2+        3.079e-11   1.614e-11   -10.512   -10.792    -0.280     (0)  
   Fe(OH)3         2.683e-11   3.515e-11   -10.571   -10.454     0.117     (0)  
   Fe(OH)4-        7.104e-13   3.725e-13   -12.148   -12.429    -0.280     (0)  
   FeOH+2          8.174e-14   5.385e-15   -13.088   -14.269    -1.181     (0)  
   Fe+3            4.973e-19   9.148e-21   -18.303   -20.039    -1.735     (0)  
   FeSO4+          4.400e-21   2.229e-21   -20.357   -20.652    -0.295     (0)  
   FeHSO4+2        2.164e-24   6.139e-25   -23.665   -24.212    -0.547     (0)  
   Fe(SO4)2-       1.990e-25   1.452e-25   -24.701   -24.838    -0.137     (0)  
   Fe2(OH)2+4      1.265e-27   8.191e-30   -26.898   -29.087    -2.189     (0)  
   Fe3(OH)4+5      2.769e-39   0.000e+00   -38.558   -41.978    -3.420     (0)  
H(0)          1.680e-06
   H2              8.398e-07   1.100e-06    -6.076    -5.959     0.117     28.55
Na            1.168e+00
   Na+             1.167e+00   6.711e-01     0.067    -0.173    -0.240      2.85
   NaSO4-          5.539e-04   2.927e-04    -3.257    -3.534    -0.277      3.11
O(0)          0.000e+00
   O2              0.000e+00   0.000e+00   -45.087   -44.970     0.117     39.34
S(-2)         1.420e-01
   H2S             1.124e-01   1.472e-01    -0.949    -0.832     0.117     56.04
   Fe(HS)2         6.672e-03   8.738e-03    -2.176    -2.059     0.117     (0)  
   HS-             4.733e-03   2.024e-03    -2.325    -2.694    -0.369     12.69
   Fe(HS)3-        2.643e-03   1.929e-03    -2.578    -2.715    -0.137     (0)  
   (H2S)2          1.790e-03   2.344e-03    -2.747    -2.630     0.117     -4.79
   S-2             1.087e-06   7.163e-08    -5.964    -7.145    -1.181     (0)  
S(6)          5.868e-04
   NaSO4-          5.539e-04   2.927e-04    -3.257    -3.534    -0.277      3.11
   SO4-2           3.269e-05   1.933e-06    -4.486    -5.714    -1.228     10.86
   HSO4-           3.033e-07   2.214e-07    -6.518    -6.655    -0.137     36.56
   FeSO4           4.726e-09   6.190e-09    -8.326    -8.208     0.117    -33.40
   AlSO4+          5.039e-11   2.432e-11   -10.298   -10.614    -0.316     (0)  
   FeHSO4+         8.736e-12   6.375e-12   -11.059   -11.195    -0.137     (0)  
   Al(SO4)2-       5.145e-15   2.483e-15   -14.289   -14.605    -0.316     (0)  
   AlHSO4+2        2.150e-15   6.098e-16   -14.668   -15.215    -0.547     (0)  
   FeSO4+          4.400e-21   2.229e-21   -20.357   -20.652    -0.295     (0)  
   FeHSO4+2        2.164e-24   6.139e-25   -23.665   -24.212    -0.547     (0)  
   Fe(SO4)2-       1.990e-25   1.452e-25   -24.701   -24.838    -0.137     (0)  
Si            3.503e+00
   H4SiO4          3.501e+00   4.586e+00     0.544     0.661     0.117     46.23
   H3SiO4-         2.184e-03   9.969e-04    -2.661    -3.001    -0.341     18.54
   H2SiO4-2        6.874e-09   5.195e-10    -8.163    -9.284    -1.122     (0)  

------------------------------Saturation indices-------------------------------

  Phase               SI** log IAP   log K(473 K,   5 atm)

  Al(OH)3(a)        2.78      6.40    3.62  Al(OH)3
  Albite           12.91      1.93  -10.98  NaAlSi3O8
  Chalcedony        3.02      0.75   -2.27  SiO2
  Fe(OH)3(a)       -9.51     -4.62    4.89  Fe(OH)3
  FeS(ppt)          0.79     -3.13   -3.91  FeS
  Gibbsite          4.47      6.40    1.93  Al(OH)3
  Goethite          0.35     -4.57   -4.93  FeOOH
  H2(g)            -3.15     -5.96   -2.81  H2
  H2O(g)            1.11     -0.05   -1.15  H2O
  H2S(g)            0.69     -7.88   -8.57  H2S	 Pressure   5.0 atm, phi 0.989
  Hematite          3.27     -9.10  -12.37  Fe2O3
  Kaolinite        16.48     14.35   -2.13  Al2Si2O5(OH)4
  Mackinawite       1.52     -3.13   -4.65  FeS
  Melanterite     -10.18    -11.66   -1.48  FeSO4:7H2O
  Mirabilite       -5.17     -6.52   -1.35  Na2SO4:10H2O
  O2(g)           -42.10    -44.97   -2.87  O2
  Pyrite            6.74     -8.68  -15.42  FeS2
  Quartz            3.11      0.75   -2.36  SiO2
  SiO2(a)           2.56      0.75   -1.81  SiO2
  Sulfur           -0.81      1.50    2.30  S
  Thenardite       -4.25     -6.06   -1.81  Na2SO4

**For a gas, SI = log10(fugacity). Fugacity = pressure * phi / 1 atm.
  For ideal gases, phi = 1.

Reaction step 85.

Using solution 1.	
Using gas phase 1.	
Using kinetics 1.	

Kinetics 1.	

	Time step: 850 seconds

	Rate name       Delta Moles Total Moles   Reactant        Coefficient

	Albite           -1.000e+00   0.000e+00   Albite                    1

-----------------------------------Gas phase-----------------------------------

Total pressure:  5.00      atmospheres          (Peng-Robinson calculation)
    Gas volume:   6.99e-01 liters
  Molar volume:   7.68e+00 liters/mole
   P * Vm / RT:  0.98942  (Compressibility Factor Z) 

                                                        Moles in gas
                                            ----------------------------------
Component         log P           P    phi     Initial       Final       Delta

H2S(g)             0.70   5.000e+00  0.989   2.131e-01   9.099e-02  -1.221e-01

-----------------------------Solution composition------------------------------

	Elements           Molality       Moles

	Al                1.168e+00   1.000e+00
	Fe                9.342e-03   8.000e-03
	Na                1.168e+00   1.000e+00
	S                 1.426e-01   1.221e-01
	Si                3.503e+00   3.000e+00

----------------------------Description of solution----------------------------

                                       pH  =   5.186      Charge balance
                                       pe  =  -4.021      Adjusted to redox equilibrium
      Specific Conductance (µS/cm, 200°C)  = 198201
                          Density (g/cm³)  =   1.11419
                               Volume (L)  =   1.13731
                        Viscosity (mPa s)  =   0.18174
                        Activity of water  =   0.899
                 Ionic strength (mol/kgw)  =   1.172e+00
                       Mass of water (kg)  =   8.564e-01
                 Total alkalinity (eq/kg)  =   4.688e+00
                         Temperature (°C)  = 200.00
                           Pressure (atm)  =  5.00
                  Electrical balance (eq)  =  -5.176e-10
 Percent error, 100*(Cat-|An|)/(Cat+|An|)  =  -0.00
                               Iterations  = 514
                                  Total H  = 1.112766e+02
                                  Total O  = 6.352623e+01

----------------------------Distribution of species----------------------------

                                               Log       Log       Log    mole V
   Species          Molality    Activity  Molality  Activity     Gamma   cm³/mol

   H+              1.016e-05   6.517e-06    -4.993    -5.186    -0.193      0.00
   OH-             1.552e-06   6.639e-07    -5.809    -6.178    -0.369    -16.86
   H2O             5.551e+01   8.986e-01     1.744    -0.046     0.000     20.84
Al            1.168e+00
   Al(OH)4-        1.162e+00   5.607e-01     0.065    -0.251    -0.316     (0)  
   Al(OH)2+        4.384e-03   2.299e-03    -2.358    -2.639    -0.280     (0)  
   Al(OH)3         1.652e-03   2.163e-03    -2.782    -2.665     0.117     (0)  
   AlOH+2          8.450e-05   6.387e-06    -4.073    -5.195    -1.122    -40.52
   Al+3            5.206e-08   9.578e-10    -7.283    -9.019    -1.735    -64.79
   AlSO4+          5.039e-11   2.432e-11   -10.298   -10.614    -0.316     (0)  
   Al(SO4)2-       5.145e-15   2.483e-15   -14.289   -14.605    -0.316     (0)  
   AlHSO4+2        2.150e-15   6.098e-16   -14.668   -15.215    -0.547     (0)  
Fe(2)         9.342e-03
   Fe(HS)2         6.672e-03   8.738e-03    -2.176    -2.059     0.117     (0)  
   Fe(HS)3-        2.643e-03   1.929e-03    -2.578    -2.715    -0.137     (0)  
   Fe+2            2.636e-05   2.390e-06    -4.579    -5.622    -1.043    -13.13
   FeOH+           7.798e-07   3.951e-07    -6.108    -6.403    -0.295     (0)  
   Fe(OH)2         5.193e-09   6.801e-09    -8.285    -8.167     0.117     (0)  
   FeSO4           4.726e-09   6.190e-09    -8.326    -8.208     0.117    -33.40
   FeHSO4+         8.736e-12   6.375e-12   -11.059   -11.195    -0.137     (0)  
   Fe(OH)3-        2.035e-13   1.031e-13   -12.691   -12.987    -0.295     (0)  
Fe(3)         5.842e-11
   Fe(OH)2+        3.079e-11   1.614e-11   -10.512   -10.792    -0.280     (0)  
   Fe(OH)3         2.683e-11   3.515e-11   -10.571   -10.454     0.117     (0)  
   Fe(OH)4-        7.104e-13   3.725e-13   -12.148   -12.429    -0.280     (0)  
   FeOH+2          8.174e-14   5.385e-15   -13.088   -14.269    -1.181     (0)  
   Fe+3            4.973e-19   9.148e-21   -18.303   -20.039    -1.735     (0)  
   FeSO4+          4.400e-21   2.229e-21   -20.357   -20.652    -0.295     (0)  
   FeHSO4+2        2.164e-24   6.139e-25   -23.665   -24.212    -0.547     (0)  
   Fe(SO4)2-       1.990e-25   1.452e-25   -24.701   -24.838    -0.137     (0)  
   Fe2(OH)2+4      1.265e-27   8.191e-30   -26.898   -29.087    -2.189     (0)  
   Fe3(OH)4+5      2.769e-39   0.000e+00   -38.558   -41.978    -3.420     (0)  
H(0)          1.680e-06
   H2              8.398e-07   1.100e-06    -6.076    -5.959     0.117     28.55
Na            1.168e+00
   Na+             1.167e+00   6.711e-01     0.067    -0.173    -0.240      2.85
   NaSO4-          5.539e-04   2.927e-04    -3.257    -3.534    -0.277      3.11
O(0)          0.000e+00
   O2              0.000e+00   0.000e+00   -45.087   -44.970     0.117     39.34
S(-2)         1.420e-01
   H2S             1.124e-01   1.472e-01    -0.949    -0.832     0.117     56.04
   Fe(HS)2         6.672e-03   8.738e-03    -2.176    -2.059     0.117     (0)  
   HS-             4.733e-03   2.024e-03    -2.325    -2.694    -0.369     12.69
   Fe(HS)3-        2.643e-03   1.929e-03    -2.578    -2.715    -0.137     (0)  
   (H2S)2          1.790e-03   2.344e-03    -2.747    -2.630     0.117     -4.79
   S-2             1.087e-06   7.163e-08    -5.964    -7.145    -1.181     (0)  
S(6)          5.868e-04
   NaSO4-          5.539e-04   2.927e-04    -3.257    -3.534    -0.277      3.11
   SO4-2           3.269e-05   1.933e-06    -4.486    -5.714    -1.228     10.86
   HSO4-           3.033e-07   2.214e-07    -6.518    -6.655    -0.137     36.56
   FeSO4           4.726e-09   6.190e-09    -8.326    -8.208     0.117    -33.40
   AlSO4+          5.039e-11   2.432e-11   -10.298   -10.614    -0.316     (0)  
   FeHSO4+         8.736e-12   6.375e-12   -11.059   -11.195    -0.137     (0)  
   Al(SO4)2-       5.145e-15   2.483e-15   -14.289   -14.605    -0.316     (0)  
   AlHSO4+2        2.150e-15   6.098e-16   -14.668   -15.215    -0.547     (0)  
   FeSO4+          4.400e-21   2.229e-21   -20.357   -20.652    -0.295     (0)  
   FeHSO4+2        2.164e-24   6.139e-25   -23.665   -24.212    -0.547     (0)  
   Fe(SO4)2-       1.990e-25   1.452e-25   -24.701   -24.838    -0.137     (0)  
Si            3.503e+00
   H4SiO4          3.501e+00   4.586e+00     0.544     0.661     0.117     46.23
   H3SiO4-         2.184e-03   9.969e-04    -2.661    -3.001    -0.341     18.54
   H2SiO4-2        6.874e-09   5.195e-10    -8.163    -9.284    -1.122     (0)  

------------------------------Saturation indices-------------------------------

  Phase               SI** log IAP   log K(473 K,   5 atm)

  Al(OH)3(a)        2.78      6.40    3.62  Al(OH)3
  Albite           12.91      1.93  -10.98  NaAlSi3O8
  Chalcedony        3.02      0.75   -2.27  SiO2
  Fe(OH)3(a)       -9.51     -4.62    4.89  Fe(OH)3
  FeS(ppt)          0.79     -3.13   -3.91  FeS
  Gibbsite          4.47      6.40    1.93  Al(OH)3
  Goethite          0.35     -4.57   -4.93  FeOOH
  H2(g)            -3.15     -5.96   -2.81  H2
  H2O(g)            1.11     -0.05   -1.15  H2O
  H2S(g)            0.69     -7.88   -8.57  H2S	 Pressure   5.0 atm, phi 0.989
  Hematite          3.27     -9.10  -1